/batch
/config,noeldb,1     ! force off writing results to database
*get,_wallstrt,active,,time,wall
! ANSYS input file written by Workbench version 2024 R1
! File used for geometry attach: C:\Users\Hp\AppData\Local\Temp\WB_Hp_5900_2\wbnew_files\dp0\SYS\DM\SYS.scdoc
/title,wbnew--Static Structural (A5)
! ****** Begin Custom Load Command Snippet ******
/COM, ACT Extensions:
/COM,     LSDYNA, 2024.1
/COM,     5f463412-bd3e-484b-87e7-cbc0a665e474, wbex
/COM,/COM,     ANSYSMotion, 2024.1
/COM,     20180725-3f81-49eb-9f31-41364844c769, wbex
/COM,
! ****** End   Custom Load Command Snippet ******
*DIM,_wb_ProjectScratch_dir,string,248
_wb_ProjectScratch_dir(1) = 'C:\Users\Hp\AppData\Local\Temp\WB_Hp_5900_2\_ProjectScratch\Scr1BE5\'
*DIM,_wb_SolverFiles_dir,string,248
_wb_SolverFiles_dir(1) = 'C:\Users\Hp\AppData\Local\Temp\WB_Hp_5900_2\wbnew_files\dp0\SYS\MECH\'
*DIM,_wb_userfiles_dir,string,248
_wb_userfiles_dir(1) = 'C:\Users\Hp\AppData\Local\Temp\WB_Hp_5900_2\wbnew_files\user_files\'
/com,--- Data in consistent MKS units. See Solving Units in the help system for more information.
/units,MKS
/nopr
/wb,file,start              !  signify a WB generated input file
/prep7
! Turn off shape checking because checks already performed inside WB mesher.
! See help system for more information.
SHPP,OFF,,NOWARN
/nolist
etcon,set             ! allow ANSYS to choose best KEYOP's for 180x elements, resets any applicable keyopt to MAPDL defaults
/com,*********** Nodes for the whole assembly ***********
nblock,3,,683
(1i9,3e20.9e3)
        1     0.000000000E+00     2.602085214E-18    -9.500000000E-02
        2     0.000000000E+00     0.000000000E+00    -9.000000000E-02
        3     0.000000000E+00    -2.602085214E-18    -8.500000000E-02
        4     0.000000000E+00     2.602085214E-18    -8.000000000E-02
        5     0.000000000E+00     0.000000000E+00    -7.500000000E-02
        6     0.000000000E+00     0.000000000E+00    -7.000000000E-02
        7     0.000000000E+00     0.000000000E+00    -6.500000000E-02
        8     0.000000000E+00    -2.602085214E-18    -6.000000000E-02
        9     0.000000000E+00     2.602085214E-18    -5.500000000E-02
       10     0.000000000E+00    -1.301042607E-18    -5.000000000E-02
       11     0.000000000E+00     1.301042607E-18    -4.500000000E-02
       12     0.000000000E+00    -1.301042607E-18    -4.000000000E-02
       13     0.000000000E+00     0.000000000E+00    -3.500000000E-02
       14     0.000000000E+00     1.301042607E-18    -3.000000000E-02
       15     0.000000000E+00     0.000000000E+00    -2.500000000E-02
       16     0.000000000E+00     4.336808690E-19    -2.000000000E-02
       17     0.000000000E+00     0.000000000E+00    -1.500000000E-02
       18     0.000000000E+00     4.336808690E-19    -1.000000000E-02
       19     0.000000000E+00     0.000000000E+00    -5.000000000E-03
       20     5.000000000E-03     0.000000000E+00    -5.000000000E-03
! ... 602 like lines cut
/wb,elem,start            !  set before creation of elements
/com,*********** Elements for Body 1 "SYS\Solid" ***********
et,1,186
keyo,1,2,1          ! set full integration on SOLID186
eblock,19,solid,,80
(19i9)
        1        1        1        1        0        0        0        0       20        0        1        1      144      185      186       38      181      184      187
      194      557      619      195      342      613      618      343      191      556      617      620
        1        1        1        1        0        0        0        0       20        0        2        1      186      185      144       39       59       60       61
      195      619      557      194      345      405      408      346      192      407      409      411
        1        1        1        1        0        0        0        0       20        0        3        1        2      145      144       38       37      180      181
      190      200      555      194      338      340      612      342      191      197      559      556
        1        1        1        1        0        0        0        0       20        0        4        1      144      145        2       39       61       62       40
      194      555      200      190      346      410      349      344      192      411      413      198
        1        1        1        1        0        0        0        0       20        0        5        2        3      146      145       37       36      179      180
      196      205      558      200      335      337      611      340      197      202      561      559
        1        1        1        1        0        0        0        0       20        0        6        2      145      146        3       40       62       63       41
      200      558      205      196      349      412      352      348      198      413      415      203
        1        1        1        1        0        0        0        0       20        0        7        3        4      147      146       36       35      178      179
      201      210      560      205      332      334      610      337      202      207      563      561
        1        1        1        1        0        0        0        0       20        0        8        3      146      147        4       41       63       64       42
      205      560      210      201      352      414      355      351      203      415      417      208
        1        1        1        1        0        0        0        0       20        0        9        4        5      148      147       35       34      177      178
      206      215      562      210      329      331      609      334      207      212      565      563
        1        1        1        1        0        0        0        0       20        0       10        4      147      148        5       42       64       65       43
      210      562      215      206      355      416      358      354      208      417      419      213
! ... 141 like lines cut
!Material Id = {42E36B85-01F0-41A0-BA3F-1C8AB9AEE8D8}
/wb,elem,end               !  done creating elements
/com,*********** Send User Defined Coordinate System(s) ***********
csys,0
toffst,273.15,  ! Temperature offset from absolute zero
/com,*********** Set Reference Temperature ***********
tref,22.
/wb,mat,start              !  starting to send materials
/com,*********** Send Materials ***********
MP,DENS,1,2402.76950609402,	! kg m^-3
MP,EX,1,34473786465.85,	! Pa
MP,NUXY,1,0.2,

TB,PRONY,1,1,3,SHEAR
TBDATA,1,0.5,1,0.2,10,0.2,100
MP,UVID,1,cfbeffe4-a2ab-443a-b638-508b11b14a4b

/wb,mat,end                !  done sending materials
!************************* Model Summary ********************
!SYS\Solid,	Material 1,	matid,	1
!************************* End Model Summary ********************
! get the diagonal of the bounding box. Needed later for other things
*get,_xmin,node,,mnloc,x
*get,_ymin,node,,mnloc,y
*get,_zmin,node,,mnloc,z
*get,_xmax,node,,mxloc,x
*get,_ymax,node,,mxloc,y
*get,_zmax,node,,mxloc,z
_ASMDIAG=(_xmax-_xmin)*(_xmax-_xmin)+(_ymax-_ymin)*(_ymax-_ymin)+(_zmax-_zmin)*(_zmax-_zmin)
_ASMDIAG=SQRT(_ASMDIAG)
/wb,contact,start          !  starting to send contact
/wb,contact,end            !  done creating contacts
/golist
/wb,load,start             !  starting to send loads
/com,*********** Fixed Supports ***********
CMBLOCK,_FIXEDSU,NODE,       21
(8i10)
        58        80       101       140       141       182       183       188
       189       402       403       404       448       489       549       550
       551       614       615       616       621
cmsel,s,_FIXEDSU
d,all,all
nsel,all
/com,*********** Define Force Using Surface Effect Elements ***********
local,12,0,0.,0.,0.,0.,0.,0.
csys,0
et,2,154
mat,2
eblock,10,,,4
(15i9)
      249        2        2        2       12      185      186      187      184      619      620      618      617
      250        2        2        2       12       60       59      186      185      405      407      619      409
      251        2        2        2       12      186      142      143      187      553      552      554      620
      252        2        2        2       12       59       81      142      186      406      450      553      407
-1
esel,s,type,,2
keyop,2,2,1                ! Apply load in local coordinate system
keyop,2,7,1                ! Use original area so load is constant in large deformation
esel,all

*DIM,_loadvari39z,TABLE,3,1,1,TIME, , , 0
! Time values
*TAXIS,_loadvari39z(1),1,0.,100.,200.
! Load values
_loadvari39z(1,1,1) = 0.
_loadvari39z(2,1,1) = 1000000.00000007
_loadvari39z(3,1,1) = 0.


/gst,on,on
fini
*get,_numnode,node,0,count
*get,_numelem,elem,0,count
*get, _MAXELEMNUM, elem, 0, NUM, MAX
*get, _MAXNODENUM, node, 0, NUM, MAX
*get, _MAXELEMTYPE, etyp, 0, NUM, MAX
*get, _MAXREALCONST, rcon, 0, NUM, MAX
/go
/wb,load,end               !  done creating loads
/com,--- Number of total nodes = %_numnode%
/com,--- Number of contact elements = 4
/com,--- Number of spring elements = 0
/com,--- Number of bearing elements = 0
/com,--- Number of solid elements = 80
/com,--- Number of condensed parts = 0
/com,--- Number of total elements = %_numelem%
*get,_wallbsol,active,,time,wall
/com,****************************************************************************
/com,*************************    SOLUTION       ********************************
/com,****************************************************************************
/solu
antype,0                   ! static analysis
_thickRatio=  0     ! Ratio of thick parts in the model
eqsl,sparse,,,,,1
cntr,print,1               ! print out contact info and also make no initial contact an error
cncheck,dmp		!	Enable program controlled contact splitting for distributed memory parallel run
dmpoption,emat,no             ! Don't combine emat file for DANSYS
dmpoption,esav,no             ! Don't combine esav file for DANSYS
nldiag,cont,iter           ! print out contact info each equilibrium iteration
rescontrol,,none                 ! Do not keep any restart files
/com,****************************************************
/com,******************* SOLVE FOR LS 1 OF 3 ****************
esel,s,type,,2
nsle
sfe,all,1,pres,1,0.
sfe,all,2,pres,1,0.
sfe,all,3,pres,1,%_loadvari39z%
nsel,all
esel,all
/nopr
/gopr
autots,on                   ! User turned on automatic time stepping
nsub,10,10,10,OFF
time,100.
outres,erase
outres,all,none
outres,nsol,all,
outres,rsol,all
outres,eangl,all
outres,etmp,all
outres,veng,all
outres,strs,all,
outres,epel,all,
outres,eppl,all,
outres,cont,all,
! *********** WB SOLVE COMMAND ***********
! check interactive state
*get,ANSINTER_,active,,int
*if,ANSINTER_,ne,0,then
/eof
*endif
solve
/com *************** Write FE CONNECTORS ********* 
CEWRITE,file,ce,,INTE
/com,****************************************************
/com,*************** FINISHED SOLVE FOR LS 1 *************
/com,****************************************************
/com,******************* SOLVE FOR LS 2 OF 3 ****************
/nopr
/gopr
autots,on                   ! User turned on automatic time stepping
nsub,10,10,10,OFF
time,200.
outres,erase
outres,all,none
outres,nsol,all,
outres,rsol,all
outres,eangl,all
outres,etmp,all
outres,veng,all
outres,strs,all,
outres,epel,all,
outres,eppl,all,
outres,cont,all,
solve
/com,****************************************************
/com,*************** FINISHED SOLVE FOR LS 2 *************
/com,****************************************************
/com,******************* SOLVE FOR LS 3 OF 3 ****************
/nopr
/gopr
autots,on                   ! User turned on automatic time stepping
nsub,10,10,10,OFF
time,300.
outres,erase
outres,all,none
outres,nsol,all,
outres,rsol,all
outres,eangl,all
outres,etmp,all
outres,veng,all
outres,strs,all,
outres,epel,all,
outres,eppl,all,
outres,cont,all,
solve
/com,****************************************************
/com,*************** FINISHED SOLVE FOR LS 3 *************
*get,_wallasol,active,,time,wall
/nopr
*get,_numnode,node,0,count
*get,_numelem,elem,0,count
*get, _MAXELEMNUM, elem, 0, NUM, MAX
*get, _MAXNODENUM, node, 0, NUM, MAX,,,INTERNAL
*get, _MAXELEMTYPE, etyp, 0, NUM, MAX
*get, _MAXREALCONST, rcon, 0, NUM, MAX
*get,_NSOLTHREADS,active,0,ntfs
*get,_NSOLPROCESSES,active,0,npfs
/gopr
/post1
xmlo,ENCODING,ISO-8859-1
xmlo,parm
/xml,parm,xml
fini
/gopr
*get,_walldone,active,,time,wall
_preptime=(_wallbsol-_wallstrt)*3600
_solvtime=(_wallasol-_wallbsol)*3600
_posttime=(_walldone-_wallasol)*3600
_totaltim=(_walldone-_wallstrt)*3600
*get,_dlbratio,active,0,solu,dlbr
*get,_combtime,active,0,solu,comb
*get,_ssmode,active,0,solu,ssmm
*get,_ndofs,active,0,solu,ndof
*get,_sol_end_time,active,0,set,time
*if,_sol_end_time,eq,300.000000,then
/fclean				!clean distributed files
*endif
/com,--- Total number of nodes = %_numnode%
/com,--- Total number of elements = %_numelem%
/com,--- Element load balance ratio = %_dlbratio%
/com,--- Time to combine distributed files = %_combtime%
/com,--- Sparse memory mode = %_ssmode%
/com,--- Number of DOF = %_ndofs%
/wb,file,end               ! done with WB generated input
