/batch
/config,noeldb,1     ! force off writing results to database
*get,_wallstrt,active,,time,wall
! ANSYS input file written by Workbench version 2024 R1
! File used for geometry attach: C:\Users\Hp\AppData\Local\Temp\WB_Hp_5076_2\wbnew_files\dp0\SYS\DM\SYS.scdoc
/title,wbnew--Static Structural (A5)
! ****** Begin Custom Load Command Snippet ******
/COM, ACT Extensions:
/COM,     LSDYNA, 2024.1
/COM,     5f463412-bd3e-484b-87e7-cbc0a665e474, wbex
/COM,/COM,     ANSYSMotion, 2024.1
/COM,     20180725-3f81-49eb-9f31-41364844c769, wbex
/COM,
! ****** End   Custom Load Command Snippet ******
*DIM,_wb_ProjectScratch_dir,string,248
_wb_ProjectScratch_dir(1) = 'C:\Users\Hp\AppData\Local\Temp\WB_Hp_5076_2\_ProjectScratch\Scr8C68\'
*DIM,_wb_SolverFiles_dir,string,248
_wb_SolverFiles_dir(1) = 'C:\Users\Hp\AppData\Local\Temp\WB_Hp_5076_2\wbnew_files\dp0\SYS\MECH\'
*DIM,_wb_userfiles_dir,string,248
_wb_userfiles_dir(1) = 'C:\Users\Hp\AppData\Local\Temp\WB_Hp_5076_2\wbnew_files\user_files\'
/com,--- Data in consistent MKS units. See Solving Units in the help system for more information.
/units,MKS
/nopr
/wb,file,start              !  signify a WB generated input file
/prep7
! Turn off shape checking because checks already performed inside WB mesher.
! See help system for more information.
SHPP,OFF,,NOWARN
/nolist
etcon,set             ! allow ANSYS to choose best KEYOP's for 180x elements, resets any applicable keyopt to MAPDL defaults
/com,*********** Nodes for the whole assembly ***********
nblock,3,,8516
(1i9,3e20.9e3)
        1     1.250000000E-02     6.500000000E-01     4.762382011E-33
        2    -1.250000000E-02     6.500000000E-01    -2.871758317E-19
        3     5.567725904E-03     6.485268073E-01     1.119000968E-02
        4    -7.328164183E-03     6.486668380E-01     1.012637085E-02
        5    -5.704282804E-03     6.514641136E-01    -1.112104722E-02
        6     7.537053627E-03     6.513128420E-01    -9.972025379E-03
        7    -1.250000000E-02     9.880740392E-01     9.058666579E-02
        8    -5.474599877E-03     9.909824877E-01     7.973218821E-02
        9     4.558821958E-03     9.910864432E-01     7.934422101E-02
       10     1.233195999E-02     9.875453407E-01     9.255979546E-02
       11     3.686907679E-03     9.849827308E-01     1.021235858E-01
       12    -8.952150892E-03     9.858160897E-01     9.901344800E-02
       13    -5.000000000E-03     6.108619516E-01    -1.145643924E-02
       14    -2.338739301E-16     6.108619516E-01    -1.250000000E-02
       15     5.000000000E-03     6.108619516E-01    -1.145643924E-02
       16     5.000000000E-03     6.408619516E-01    -1.145643924E-02
       17     5.000000000E-03     6.261926170E-01    -1.145643924E-02
       18    -5.000000000E-03     6.408619516E-01    -1.145643924E-02
       19    -5.000000000E-03     6.261923857E-01    -1.145643924E-02
       20    -1.250000000E-02    -4.785736152E-18     1.530808499E-18
! ... 7723 like lines cut
/wb,elem,start            !  set before creation of elements
/com,*********** Elements for Body 1 "SYS\Solid" ***********
et,1,187
eblock,19,solid,,3846
(19i9)
        1        1        1        1        0        0        0        0       10        0        1       18      369       69       70     1456     1697     1454     1455
     1701     1695
        1        1        1        1        0        0        0        0       10        0        2     1022     1192     1107     1023     7229     7490     7227     7225
     7234     7231
        1        1        1        1        0        0        0        0       10        0        3      103      124      163      450     1917     2069     1918     1921
     2073     2373
        1        1        1        1        0        0        0        0       10        0        4      121      472      204      165     2054     2697     2050     2048
     2391     2387
        1        1        1        1        0        0        0        0       10        0        5      104      451      119      106     1928     2035     1923     1922
     1941     1939
        1        1        1        1        0        0        0        0       10        0        6      200      465      464      452     2672     4379     2671     2669
     4338     4337
        1        1        1        1        0        0        0        0       10        0        7     1193     1195     1209     1208     7654     7660     7656     7655
     7659     7687
        1        1        1        1        0        0        0        0       10        0        8      260      261      588      262     3136     3147     3139     3137
     3143     3156
        1        1        1        1        0        0        0        0       10        0        9      117      129      122      463     2021     2055     2020     2024
     2106     2058
        1        1        1        1        0        0        0        0       10        0       10      124      165      163      452     2070     2372     2069     2074
     2388     2375
! ... 7673 like lines cut
!Material Id = {D77EBBDC-9DA8-4C96-BEE2-247F6BD70E07}
/wb,elem,end               !  done creating elements
/com,*********** Send User Defined Coordinate System(s) ***********
csys,0
toffst,273.15,  ! Temperature offset from absolute zero
/com,*********** Set Reference Temperature ***********
tref,22.
/wb,mat,start              !  starting to send materials
/com,*********** Send Materials ***********
Temperature = 'TEMP' ! Temperature
MP,DENS,1,2703,	! kg m^-3
MP,C,1,885,	! J kg^-1 C^-1
MP,EX,1,68900000000,	! Pa
MP,NUXY,1,0.33,
MP,UVID,1,dd17b44a-bd3a-4bf0-85bd-7a1f19b8cde9
MP,UMID,1,e722ce14-4219-45ea-8204-edc4e5c3428e

/wb,mat,end                !  done sending materials
!************************* Model Summary ********************
!SYS\Solid,	AL 6061-T6,	matid,	1
!************************* End Model Summary ********************
! get the diagonal of the bounding box. Needed later for other things
*get,_xmin,node,,mnloc,x
*get,_ymin,node,,mnloc,y
*get,_zmin,node,,mnloc,z
*get,_xmax,node,,mxloc,x
*get,_ymax,node,,mxloc,y
*get,_zmax,node,,mxloc,z
_ASMDIAG=(_xmax-_xmin)*(_xmax-_xmin)+(_ymax-_ymin)*(_ymax-_ymin)+(_zmax-_zmin)*(_zmax-_zmin)
_ASMDIAG=SQRT(_ASMDIAG)
/wb,contact,start          !  starting to send contact
/wb,contact,end            !  done creating contacts
/golist
/wb,load,start             !  starting to send loads
/com,*********** Fixed Supports ***********
CMBLOCK,_FIXEDSU,NODE,       48
(8i10)
        20        21        22        23        24        25        26        39
        40        41        42        43       978       979       980       981
      1471      1472      1473      1474      1479      1484      1485      1486
      1487      1491      1492      1493      1494      1498      1499      1500
      1504      1508      1509      1510      1514      1588      1589      1596
      1597      1601      1602      1605      1609      1610      7051      7052

cmsel,s,_FIXEDSU
d,all,all
nsel,all
/com,*********** Define Force Using Surface Effect Elements ***********
local,12,0,0.,0.,0.,0.,0.,0.
csys,0
et,2,154
mat,2
eblock,10,,,8
(15i9)
     6439        2        2        2       12       45       46       63       63     1616     1629       63     1622
     6440        2        2        2       12       18       61       47       47     1453     1631       47     1452
     6441        2        2        2       12       46       47       62       62     1623     1632       62     1628
     6442        2        2        2       12       45       63       60       60     1622     1668       60     1621
     6443        2        2        2       12       44       45       60       60     1611     1621       60     1615
     6444        2        2        2       12       46       62       63       63     1628     1672       63     1629
     6445        2        2        2       12       47       61       62       62     1631     1669       62     1632
     6446        2        2        2       12       16       61       18       18     1433     1453       18     1431
-1
esel,s,type,,2
keyop,2,2,1                ! Apply load in local coordinate system
keyop,2,7,1                ! Use original area so load is constant in large deformation
esel,all
/gst,on,on
fini
*get,_numnode,node,0,count
*get,_numelem,elem,0,count
*get, _MAXELEMNUM, elem, 0, NUM, MAX
*get, _MAXNODENUM, node, 0, NUM, MAX
*get, _MAXELEMTYPE, etyp, 0, NUM, MAX
*get, _MAXREALCONST, rcon, 0, NUM, MAX
/go
/wb,load,end               !  done creating loads
/com,--- Number of total nodes = %_numnode%
/com,--- Number of contact elements = 8
/com,--- Number of spring elements = 0
/com,--- Number of bearing elements = 0
/com,--- Number of solid elements = 3846
/com,--- Number of condensed parts = 0
/com,--- Number of total elements = %_numelem%
*get,_wallbsol,active,,time,wall
/com,****************************************************************************
/com,*************************    SOLUTION       ********************************
/com,****************************************************************************
/solu
antype,0                   ! static analysis
_thickRatio=  0     ! Ratio of thick parts in the model
eqsl,sparse,,,,,1
cntr,print,1               ! print out contact info and also make no initial contact an error
cncheck,dmp		!	Enable program controlled contact splitting for distributed memory parallel run
dmpoption,emat,no             ! Don't combine emat file for DANSYS
dmpoption,esav,no             ! Don't combine esav file for DANSYS
nldiag,cont,iter           ! print out contact info each equilibrium iteration
rescontrol,,none                 ! Do not keep any restart files
/com,****************************************************
/com,******************* SOLVE FOR LS 1 OF 1 ****************
esel,s,type,,2
nsle
sfe,all,1,pres,1,0.
sfe,all,2,pres,1,-5109974.12480325
sfe,all,3,pres,1,0.
nsel,all
esel,all
/nopr
/gopr
nsub,1,1,1
time,1.
outres,erase
outres,all,none
outres,nsol,all,
outres,rsol,all
outres,eangl,all
outres,etmp,all
outres,veng,all
outres,strs,all,
outres,epel,all,
outres,eppl,all,
outres,cont,all,
! *********** WB SOLVE COMMAND ***********
! check interactive state
*get,ANSINTER_,active,,int
*if,ANSINTER_,ne,0,then
/eof
*endif
solve
/com *************** Write FE CONNECTORS ********* 
CEWRITE,file,ce,,INTE
/com,****************************************************
/com,*************** FINISHED SOLVE FOR LS 1 *************
*get,_wallasol,active,,time,wall
/nopr
*get,_numnode,node,0,count
*get,_numelem,elem,0,count
*get, _MAXELEMNUM, elem, 0, NUM, MAX
*get, _MAXNODENUM, node, 0, NUM, MAX,,,INTERNAL
*get, _MAXELEMTYPE, etyp, 0, NUM, MAX
*get, _MAXREALCONST, rcon, 0, NUM, MAX
*get,_NSOLTHREADS,active,0,ntfs
*get,_NSOLPROCESSES,active,0,npfs
/gopr
/post1
xmlo,ENCODING,ISO-8859-1
xmlo,parm
/xml,parm,xml
fini
/gopr
*get,_walldone,active,,time,wall
_preptime=(_wallbsol-_wallstrt)*3600
_solvtime=(_wallasol-_wallbsol)*3600
_posttime=(_walldone-_wallasol)*3600
_totaltim=(_walldone-_wallstrt)*3600
*get,_dlbratio,active,0,solu,dlbr
*get,_combtime,active,0,solu,comb
*get,_ssmode,active,0,solu,ssmm
*get,_ndofs,active,0,solu,ndof
*get,_sol_end_time,active,0,set,time
*if,_sol_end_time,eq,1.000000,then
/fclean				!clean distributed files
*endif
/com,--- Total number of nodes = %_numnode%
/com,--- Total number of elements = %_numelem%
/com,--- Element load balance ratio = %_dlbratio%
/com,--- Time to combine distributed files = %_combtime%
/com,--- Sparse memory mode = %_ssmode%
/com,--- Number of DOF = %_ndofs%
/wb,file,end               ! done with WB generated input
