/batch
/config,noeldb,1     ! force off writing results to database
*get,_wallstrt,active,,time,wall
! ANSYS input file written by Workbench version 2024 R1
! File used for geometry attach: C:\Users\Hp\AppData\Local\Temp\WB_Hp_32168_2\wbnew_files\dp0\Geom\DM\Geom.scdoc
/title,wbnew--Static Structural (B5)
! ****** Begin Custom Load Command Snippet ******
/COM, ACT Extensions:
/COM,     LSDYNA, 2024.1
/COM,     5f463412-bd3e-484b-87e7-cbc0a665e474, wbex
/COM,/COM,     ANSYSMotion, 2024.1
/COM,     20180725-3f81-49eb-9f31-41364844c769, wbex
/COM,
! ****** End   Custom Load Command Snippet ******
*DIM,_wb_ProjectScratch_dir,string,248
_wb_ProjectScratch_dir(1) = 'C:\Users\Hp\AppData\Local\Temp\WB_Hp_32168_2\_ProjectScratch\Scr07A2\'
*DIM,_wb_SolverFiles_dir,string,248
_wb_SolverFiles_dir(1) = 'C:\Users\Hp\AppData\Local\Temp\WB_Hp_32168_2\wbnew_files\dp0\SYS\MECH\'
*DIM,_wb_userfiles_dir,string,248
_wb_userfiles_dir(1) = 'C:\Users\Hp\AppData\Local\Temp\WB_Hp_32168_2\wbnew_files\user_files\'
/com,--- Data in consistent BIN units. See Solving Units in the help system for more information.
/units,BIN
/nopr
/wb,file,start              !  signify a WB generated input file
/prep7
! Turn off shape checking because checks already performed inside WB mesher.
! See help system for more information.
SHPP,OFF,,NOWARN
/nolist
etcon,set             ! allow ANSYS to choose best KEYOP's for 180x elements, resets any applicable keyopt to MAPDL defaults
/com,*********** Nodes for the whole assembly ***********
nblock,3,,213
(1i9,3e20.9e3)
        1     2.160000000E+02     1.440000000E+02     0.000000000E+00
        2     2.160000000E+02    -7.200000000E+01     0.000000000E+00
        3     2.160000000E+02     1.380000000E+02     0.000000000E+00
        4     2.160000000E+02     1.320000000E+02     0.000000000E+00
        5     2.160000000E+02     1.260000000E+02     0.000000000E+00
        6     2.160000000E+02     1.200000000E+02     0.000000000E+00
        7     2.160000000E+02     1.140000000E+02     0.000000000E+00
        8     2.160000000E+02     1.080000000E+02     0.000000000E+00
        9     2.160000000E+02     1.020000000E+02     0.000000000E+00
       10     2.160000000E+02     9.600000000E+01     0.000000000E+00
       11     2.160000000E+02     9.000000000E+01     0.000000000E+00
       12     2.160000000E+02     8.400000000E+01     0.000000000E+00
       13     2.160000000E+02     7.800000000E+01     0.000000000E+00
       14     2.160000000E+02     7.200000000E+01     0.000000000E+00
       15     2.160000000E+02     6.600000000E+01     0.000000000E+00
       16     2.160000000E+02     6.000000000E+01     0.000000000E+00
       17     2.160000000E+02     5.400000000E+01     0.000000000E+00
       18     2.160000000E+02     4.800000000E+01     0.000000000E+00
       19     2.160000000E+02     4.200000000E+01     0.000000000E+00
       20     2.160000000E+02     3.600000000E+01     0.000000000E+00
! ... 175 like lines cut
/wb,elem,start            !  set before creation of elements
/com,*********** Elements for Body 1 "Beam (AISC_W18X106)" ***********
et,1,188
keyo,1,3,2
eblock,19,solid,,96
(19i9)
        1        1        1        1        0        0        0        0        3        0        1        1        3       98
        1        1        1        1        0        0        0        0        3        0        2        3        4       99
        1        1        1        1        0        0        0        0        3        0        3        4        5      100
        1        1        1        1        0        0        0        0        3        0        4        5        6      101
        1        1        1        1        0        0        0        0        3        0        5        6        7      102
        1        1        1        1        0        0        0        0        3        0        6        7        8      103
        1        1        1        1        0        0        0        0        3        0        7        8        9      104
        1        1        1        1        0        0        0        0        3        0        8        9       10      105
        1        1        1        1        0        0        0        0        3        0        9       10       11      106
        1        1        1        1        0        0        0        0        3        0       10       11       12      107
        1        1        1        1        0        0        0        0        3        0       11       12       13      108
        1        1        1        1        0        0        0        0        3        0       12       13       14      109
        1        1        1        1        0        0        0        0        3        0       13       14       15      110
        1        1        1        1        0        0        0        0        3        0       14       15       16      111
        1        1        1        1        0        0        0        0        3        0       15       16       17      112
        1        1        1        1        0        0        0        0        3        0       16       17       18      113
        1        1        1        1        0        0        0        0        3        0       17       18       19      114
        1        1        1        1        0        0        0        0        3        0       18       19       20      115
        1        1        1        1        0        0        0        0        3        0       19       20       21      116
        1        1        1        1        0        0        0        0        3        0       20       21       22      117
! ... 77 like lines cut
!Material Id = {7362F5DB-FC23-40C0-B535-3766DD3A7E99}
/wb,elem,end               !  done creating elements
/com,*********** Send User Defined Coordinate System(s) ***********
csys,0
toffst,459.67,  ! Temperature offset from absolute zero
/com,*********** Set Reference Temperature ***********
tref,71.6
/wb,mat,start              !  starting to send materials
/com,*********** Send Materials ***********
Temperature = 'TEMP' ! Temperature
MP,DENS,1,0.000734544492879577,	! slinch in^-3
MP,ALPX,1,6.66666666666667e-06,	! F^-1
MP,C,1,373722.969668162,	! in^2 s^-2 F^-1
MP,KXX,1,7.55607836445752,	! slinch in s^-3 F^-1
MP,RSVX,1,8.52348993288591,	! ohm cmil in^-1
MP,EX,1,29007547.5428236,	! slinch s^-2 in^-1
MP,NUXY,1,0.3,
MP,MURX,1,10000,
MP,UVID,1,a5f06b2d-7f8b-409f-9a3b-e0812fb27781
MP,UMID,1,59002a79-71c2-428e-906b-55d7dbee100e

/wb,mat,end                !  done sending materials
/com,*********** Send Beam Properties ***********
SECTYPE,1,BEAM,MESH
SECBLOCK,441,116
       84       85        5       84      325      121      157       84      441        1
       93       82       83       93      323      324      158       93      440        1
       93       81       82       93      321      322      323       93      439        1
       80       81       93       80      320      321      171       80      438        1
       78       79       94       78      319      172      179       78      437        1
      105       68      104      105      318      243      250      105      436        1
       67       68      105       67      317      318      316       67      435        1
      105       66       67      105      314      315      316      105      434        1
      105       65       66      105      312      313      314      105      433        1
       64       65      105       64      311      312      310       64      432        1
       51       64      105       51      309      310      260       51      431        1
       63       64       51       63      308      309      295       63      430        1
       57       55       56       57      305      306      307       57      429        1
       54       55       57       54      304      305      302       54      428        1
       58       54       57       58      301      302      303       58      427        1
       53       54       58       53      300      301      298       53      426        1
       59       53       58       59      297      298      299       59      425        1
       52       53       59       52      296      297      287       52      424        1
       51       62       63       51      293      294      295       51      423        1
       51       61       62       51      290      292      293       51      422        1
! ... 537 like lines cut

secoffset,cent

!************************* Model Summary ********************
!Beam (AISC_W18X106),	Structural Steel,	matid,	1
!************************* End Model Summary ********************
! get the diagonal of the bounding box. Needed later for other things
*get,_xmin,node,,mnloc,x
*get,_ymin,node,,mnloc,y
*get,_zmin,node,,mnloc,z
*get,_xmax,node,,mxloc,x
*get,_ymax,node,,mxloc,y
*get,_zmax,node,,mxloc,z
_ASMDIAG=(_xmax-_xmin)*(_xmax-_xmin)+(_ymax-_ymin)*(_ymax-_ymin)+(_zmax-_zmin)*(_zmax-_zmin)
_ASMDIAG=SQRT(_ASMDIAG)
/wb,contact,start          !  starting to send contact
/wb,contact,end            !  done creating contacts
/golist
/wb,load,start             !  starting to send loads
/com,*********** Fixed Supports ***********
CMBLOCK,_FIXEDSU,NODE,        1
(8i10)
         2
cmsel,s,_FIXEDSU
d,all,all
nsel,all
/com,*********** Simple Supports ***********
CMBLOCK,_SIMPLSU,NODE,        1
(8i10)
        74
cmsel,s,_SIMPLSU
d,all,ux,0
d,all,uy,0
d,all,uz,0
nsel,all
/com,*********** Create Beam End Releases ***********
! Beam end release with connection behavior as coupled
cp,next,ux,1,194
cp,next,uy,1,194
cp,next,uz,1,194
cp,next,rotx,1,194
cp,next,roty,1,194
/com,*********** Define Line Pressure Vector Using Surface Effect Elements ***********
local,12,0,0.,0.,0.,0.,0.,0.
csys,0
et,2,156
mat,2
keyop,2,5,1         !  No orientation node
eblock,10,,,24
(15i9)
       98        2        2        2       12       74       75
       99        2        2        2       12       75       76
      100        2        2        2       12       76       77
      101        2        2        2       12       77       78
      102        2        2        2       12       78       79
      103        2        2        2       12       79       80
      104        2        2        2       12       80       81
      105        2        2        2       12       81       82
      106        2        2        2       12       82       83
      107        2        2        2       12       83       84
      108        2        2        2       12       84       85
      109        2        2        2       12       85       86
      110        2        2        2       12       86       87
      111        2        2        2       12       87       88
      112        2        2        2       12       88       89
      113        2        2        2       12       89       90
      114        2        2        2       12       90       91
      115        2        2        2       12       91       92
      116        2        2        2       12       92       93
      117        2        2        2       12       93       94
! ... 5 like lines cut
esel,s,type,,2
keyop,2,2,1                ! Apply load in local coordinate system
esel,all
/com,*********** Define Line Pressure Vector Using Surface Effect Elements ***********
local,13,0,0.,0.,0.,0.,0.,0.
csys,0
et,3,156
mat,3
keyop,3,5,1         !  No orientation node
eblock,10,,,36
(15i9)
      122        3        3        3       13       38       39
      123        3        3        3       13       39       40
      124        3        3        3       13       40       41
      125        3        3        3       13       41       42
      126        3        3        3       13       42       43
      127        3        3        3       13       43       44
      128        3        3        3       13       44       45
      129        3        3        3       13       45       46
      130        3        3        3       13       46       47
      131        3        3        3       13       47       48
      132        3        3        3       13       48       49
      133        3        3        3       13       49       50
      134        3        3        3       13       50       51
      135        3        3        3       13       51       52
      136        3        3        3       13       52       53
      137        3        3        3       13       53       54
      138        3        3        3       13       54       55
      139        3        3        3       13       55       56
      140        3        3        3       13       56       57
      141        3        3        3       13       57       58
! ... 17 like lines cut
esel,s,type,,3
keyop,3,2,1                ! Apply load in local coordinate system
esel,all
/gst,on,on
fini
*get,_numnode,node,0,count
*get,_numelem,elem,0,count
*get, _MAXELEMNUM, elem, 0, NUM, MAX
*get, _MAXNODENUM, node, 0, NUM, MAX
*get, _MAXELEMTYPE, etyp, 0, NUM, MAX
*get, _MAXREALCONST, rcon, 0, NUM, MAX
/go
/wb,load,end               !  done creating loads
/com,--- Number of total nodes = %_numnode%
/com,--- Number of contact elements = 60
/com,--- Number of spring elements = 0
/com,--- Number of bearing elements = 0
/com,--- Number of solid elements = 96
/com,--- Number of condensed parts = 0
/com,--- Number of total elements = %_numelem%
*get,_wallbsol,active,,time,wall
/com,****************************************************************************
/com,*************************    SOLUTION       ********************************
/com,****************************************************************************
/solu
antype,0                   ! static analysis
_thickRatio=  0     ! Ratio of thick parts in the model
eqsl,sparse,,,,,1
cntr,print,1               ! print out contact info and also make no initial contact an error
cncheck,dmp		!	Enable program controlled contact splitting for distributed memory parallel run
dmpoption,emat,no             ! Don't combine emat file for DANSYS
dmpoption,esav,no             ! Don't combine esav file for DANSYS
nldiag,cont,iter           ! print out contact info each equilibrium iteration
rescontrol,,none                 ! Do not keep any restart files
/com,****************************************************
/com,******************* SOLVE FOR LS 1 OF 1 ****************
esel,s,type,,2
nsle
sfe,all,1,pres,1,99.9999999830492
sfe,all,2,pres,1,0.
sfe,all,3,pres,1,0.
esel,s,type,,3
nsle
sfe,all,1,pres,1,0.
sfe,all,2,pres,1,-133.333333310732
sfe,all,3,pres,1,0.
nsel,all
esel,all
/nopr
/gopr
nsub,1,1,1
time,1.
outres,erase
outres,all,none
outres,nsol,all,
outres,rsol,all
outres,eangl,all
outres,etmp,all
outres,veng,all
outres,strs,all,
outres,epel,all,
outres,eppl,all,
outres,cont,all,
/nopr
esel,s,type,,1
cm,_elmisc,elem
esel,all
/gopr
outres,misc,all,_elmisc
! *********** WB SOLVE COMMAND ***********
! check interactive state
*get,ANSINTER_,active,,int
*if,ANSINTER_,ne,0,then
/eof
*endif
solve
/com *************** Write FE CONNECTORS ********* 
CEWRITE,file,ce,,INTE
/com,****************************************************
/com,*************** FINISHED SOLVE FOR LS 1 *************
*get,_wallasol,active,,time,wall
/nopr
*get,_numnode,node,0,count
*get,_numelem,elem,0,count
*get, _MAXELEMNUM, elem, 0, NUM, MAX
*get, _MAXNODENUM, node, 0, NUM, MAX,,,INTERNAL
*get, _MAXELEMTYPE, etyp, 0, NUM, MAX
*get, _MAXREALCONST, rcon, 0, NUM, MAX
*get,_NSOLTHREADS,active,0,ntfs
*get,_NSOLPROCESSES,active,0,npfs
/gopr
/post1
xmlo,ENCODING,ISO-8859-1
xmlo,parm
/xml,parm,xml
fini
/gopr
*get,_walldone,active,,time,wall
_preptime=(_wallbsol-_wallstrt)*3600
_solvtime=(_wallasol-_wallbsol)*3600
_posttime=(_walldone-_wallasol)*3600
_totaltim=(_walldone-_wallstrt)*3600
*get,_dlbratio,active,0,solu,dlbr
*get,_combtime,active,0,solu,comb
*get,_ssmode,active,0,solu,ssmm
*get,_ndofs,active,0,solu,ndof
*get,_sol_end_time,active,0,set,time
*if,_sol_end_time,eq,1.000000,then
/fclean				!clean distributed files
*endif
/com,--- Total number of nodes = %_numnode%
/com,--- Total number of elements = %_numelem%
/com,--- Element load balance ratio = %_dlbratio%
/com,--- Time to combine distributed files = %_combtime%
/com,--- Sparse memory mode = %_ssmode%
/com,--- Number of DOF = %_ndofs%
/wb,file,end               ! done with WB generated input
