/batch
/config,noeldb,1     ! force off writing results to database
*get,_wallstrt,active,,time,wall
! ANSYS input file written by Workbench version 2024 R1
! File used for geometry attach: C:\Medical_Device_Portifolio\FEA Analysis\FEA_basic_plate_files\dp0\SYS-1\DM\SYS-1.scdoc
/title,FEA_basic_plate--Static Structural (B5)
! ****** Begin Custom Load Command Snippet ******
/COM, ACT Extensions:
/COM,     LSDYNA, 2024.1
/COM,     5f463412-bd3e-484b-87e7-cbc0a665e474, wbex
/COM,/COM,     ANSYSMotion, 2024.1
/COM,     20180725-3f81-49eb-9f31-41364844c769, wbex
/COM,
! ****** End   Custom Load Command Snippet ******
*DIM,_wb_ProjectScratch_dir,string,248
_wb_ProjectScratch_dir(1) = 'C:\Medical_Device_Portifolio\FEA Analysis\_ProjectScratch\Scr938B\'
*DIM,_wb_SolverFiles_dir,string,248
_wb_SolverFiles_dir(1) = 'C:\Medical_Device_Portifolio\FEA Analysis\FEA_basic_plate_files\dp0\SYS-1\MECH\'
*DIM,_wb_userfiles_dir,string,248
_wb_userfiles_dir(1) = 'C:\Medical_Device_Portifolio\FEA Analysis\FEA_basic_plate_files\user_files\'
/com,--- Data in consistent MKS units. See Solving Units in the help system for more information.
/units,MKS
/nopr
/wb,file,start              !  signify a WB generated input file
/prep7
! Turn off shape checking because checks already performed inside WB mesher.
! See help system for more information.
SHPP,OFF,,NOWARN
/nolist
etcon,set             ! allow ANSYS to choose best KEYOP's for 180x elements, resets any applicable keyopt to MAPDL defaults
/com,*********** Nodes for the whole assembly ***********
nblock,3,,1184
(1i9,3e20.9e3)
        1    -5.000000000E-03     5.000000000E-03     4.500000000E-02
        2    -5.000000000E-03     5.000000000E-03     4.000000000E-02
        3    -5.000000000E-03     5.000000000E-03     3.500000000E-02
        4    -5.000000000E-03     5.000000000E-03     3.000000000E-02
        5    -5.000000000E-03     5.000000000E-03     2.500000000E-02
        6    -5.000000000E-03     5.000000000E-03     2.000000000E-02
        7    -5.000000000E-03     5.000000000E-03     1.500000000E-02
        8    -5.000000000E-03     5.000000000E-03     1.000000000E-02
        9    -5.000000000E-03     5.000000000E-03     5.000000000E-03
       10    -5.000000000E-03     5.000000000E-03     6.938893904E-18
       11    -5.000000000E-03     5.000000000E-03    -5.000000000E-03
       12    -5.000000000E-03     5.000000000E-03    -1.000000000E-02
       13    -5.000000000E-03     5.000000000E-03    -1.500000000E-02
       14    -5.000000000E-03     5.000000000E-03    -2.000000000E-02
       15    -5.000000000E-03     5.000000000E-03    -2.500000000E-02
       16    -5.000000000E-03     5.000000000E-03    -3.000000000E-02
       17    -5.000000000E-03     5.000000000E-03    -3.500000000E-02
       18    -5.000000000E-03     5.000000000E-03    -4.000000000E-02
       19    -5.000000000E-03     5.000000000E-03    -4.500000000E-02
       20     0.000000000E+00     5.000000000E-03     4.500000000E-02
! ... 1058 like lines cut
/wb,elem,start            !  set before creation of elements
/com,*********** Elements for Body 1 "SYS-1\Solid" ***********
et,1,186
keyo,1,2,1          ! set full integration on SOLID186
eblock,19,solid,,160
(19i9)
        1        1        1        1        0        0        0        0       20        0        1        1      310      258      238      114      315      259      239
      321      994      972      320      701      995      974      700      318     1072      993      971
        1        1        1        1        0        0        0        0       20        0        2        1      238      258      310      115      218      219      172
      320      972      994      321      705      931      839      704      319      932      933      840
        1        1        1        1        0        0        0        0       20        0        3        1       20      311      310      114       95      314      315
      317      416     1071      321      661      662     1077      701      318      414     1074     1072
        1        1        1        1        0        0        0        0       20        0        4        1      310      311       20      115      172      173      134
      321     1071      416      317      704      838      762      703      319      840      842      415
        1        1        1        1        0        0        0        0       20        0        5       20       39      312      311       95       76      313      314
      413      493     1073      416      621      623     1076      662      414      490     1075     1074
        1        1        1        1        0        0        0        0       20        0        6       20      311      312       39      134      173      174      153
      416     1073      493      413      762      841      800      761      415      842      844      491
        1        1        1        1        0        0        0        0       20        0        7       39      270      308      312       76      307      309      313
      492     1013     1069      493      622     1067     1070      623      490     1012     1068     1075
        1        1        1        1        0        0        0        0       20        0        8       39      312      308      270      153      174      175      176
      493     1069     1013      492      800      843      845      801      491      844      846      848
        1        1        1        1        0        0        0        0       20        0        9        1      238      237        2      114      239      240      113
      320      969      326      316      700      973      699      698      318      971      970      324
        1        1        1        1        0        0        0        0       20        0       10        1        2      237      238      115      116      217      218
      316      326      969      320      702      708      929      705      319      325      930      932
! ... 301 like lines cut
!Material Id = {0B61B12D-BD58-45FC-8290-037F403158EC}
/wb,elem,end               !  done creating elements
/com,*********** Send User Defined Coordinate System(s) ***********
csys,0
toffst,273.15,  ! Temperature offset from absolute zero
/com,*********** Set Reference Temperature ***********
tref,22.
/wb,mat,start              !  starting to send materials
/com,*********** Send Materials ***********
Temperature = 'TEMP' ! Temperature
MP,DENS,1,7850,	! kg m^-3
MP,ALPX,1,1.2e-05,	! C^-1
MP,C,1,434,	! J kg^-1 C^-1
MP,KXX,1,60.5,	! W m^-1 C^-1
MP,RSVX,1,1.7e-07,	! kg m^3 A^-2 s^-3
MP,EX,1,200000000000,	! Pa
MP,NUXY,1,0.3,
MP,MURX,1,10000,
MP,UVID,1,5a12033e-a36b-41b3-8c7a-5c62f580143f
MP,UMID,1,59002a79-71c2-428e-906b-55d7dbee100e

/wb,mat,end                !  done sending materials
!************************* Model Summary ********************
!SYS-1\Solid,	Structural Steel,	matid,	1
!************************* End Model Summary ********************
! get the diagonal of the bounding box. Needed later for other things
*get,_xmin,node,,mnloc,x
*get,_ymin,node,,mnloc,y
*get,_zmin,node,,mnloc,z
*get,_xmax,node,,mxloc,x
*get,_ymax,node,,mxloc,y
*get,_zmax,node,,mxloc,z
_ASMDIAG=(_xmax-_xmin)*(_xmax-_xmin)+(_ymax-_ymin)*(_ymax-_ymin)+(_zmax-_zmin)*(_zmax-_zmin)
_ASMDIAG=SQRT(_ASMDIAG)
/wb,contact,start          !  starting to send contact
/wb,contact,end            !  done creating contacts
/golist
/wb,load,start             !  starting to send loads
/com,*********** Fixed Supports ***********
CMBLOCK,_FIXEDSU,NODE,       37
(8i10)
       172       173       174       175       219       258       259       308
       309       310       311       312       313       314       315       838
       839       840       841       842       843       844       846       933
       993       994       995      1068      1069      1070      1071      1072
      1073      1074      1075      1076      1077
cmsel,s,_FIXEDSU
d,all,all
nsel,all
/com,*********** Define Force Using Surface Effect Elements ***********
local,12,0,0.,0.,0.,0.,0.,0.
csys,0
et,2,154
mat,2
eblock,10,,,8
(15i9)
      417        2        2        2       12      198      262      260      199      892      997      894      891
      418        2        2        2       12      197      263      262      198      890      999      892      889
      419        2        2        2       12      196      264      263      197      888     1001      890      887
      420        2        2        2       12      195      268      264      196      886     1004      888      885
      421        2        2        2       12      262      265      261      260     1000      998      996      997
      422        2        2        2       12      263      266      265      262     1002     1005     1000      999
      423        2        2        2       12      264      267      266      263     1003     1006     1002     1001
      424        2        2        2       12      268      269      267      264     1008     1007     1003     1004
-1
esel,s,type,,2
keyop,2,2,1                ! Apply load in local coordinate system
keyop,2,7,1                ! Use original area so load is constant in large deformation
esel,all
/gst,on,on
fini
*get,_numnode,node,0,count
*get,_numelem,elem,0,count
*get, _MAXELEMNUM, elem, 0, NUM, MAX
*get, _MAXNODENUM, node, 0, NUM, MAX
*get, _MAXELEMTYPE, etyp, 0, NUM, MAX
*get, _MAXREALCONST, rcon, 0, NUM, MAX
/go
/wb,load,end               !  done creating loads
/com,--- Number of total nodes = %_numnode%
/com,--- Number of contact elements = 8
/com,--- Number of spring elements = 0
/com,--- Number of bearing elements = 0
/com,--- Number of solid elements = 160
/com,--- Number of condensed parts = 0
/com,--- Number of total elements = %_numelem%
*get,_wallbsol,active,,time,wall
/com,****************************************************************************
/com,*************************    SOLUTION       ********************************
/com,****************************************************************************
/solu
antype,0                   ! static analysis
_thickRatio=  0     ! Ratio of thick parts in the model
eqsl,sparse,,,,,1
cntr,print,1               ! print out contact info and also make no initial contact an error
cncheck,dmp		!	Enable program controlled contact splitting for distributed memory parallel run
dmpoption,emat,no             ! Don't combine emat file for DANSYS
dmpoption,esav,no             ! Don't combine esav file for DANSYS
nldiag,cont,iter           ! print out contact info each equilibrium iteration
rescontrol,,none                 ! Do not keep any restart files
/com,****************************************************
/com,******************* SOLVE FOR LS 1 OF 1 ****************
esel,s,type,,2
nsle
sfe,all,1,pres,1,0.
sfe,all,2,pres,1,0.
sfe,all,3,pres,1,5000000.00000037
nsel,all
esel,all
/nopr
/gopr
nsub,1,1,1
time,1.
outres,erase
outres,all,none
outres,nsol,all,
outres,rsol,all
outres,eangl,all
outres,etmp,all
outres,veng,all
outres,strs,all,
outres,epel,all,
outres,eppl,all,
outres,cont,all,
! *********** WB SOLVE COMMAND ***********
! check interactive state
*get,ANSINTER_,active,,int
*if,ANSINTER_,ne,0,then
/eof
*endif
solve
/com *************** Write FE CONNECTORS ********* 
CEWRITE,file,ce,,INTE
/com,****************************************************
/com,*************** FINISHED SOLVE FOR LS 1 *************
*get,_wallasol,active,,time,wall
/nopr
*get,_numnode,node,0,count
*get,_numelem,elem,0,count
*get, _MAXELEMNUM, elem, 0, NUM, MAX
*get, _MAXNODENUM, node, 0, NUM, MAX,,,INTERNAL
*get, _MAXELEMTYPE, etyp, 0, NUM, MAX
*get, _MAXREALCONST, rcon, 0, NUM, MAX
*get,_NSOLTHREADS,active,0,ntfs
*get,_NSOLPROCESSES,active,0,npfs
/gopr
/post1
xmlo,ENCODING,ISO-8859-1
xmlo,parm
/xml,parm,xml
fini
/gopr
*get,_walldone,active,,time,wall
_preptime=(_wallbsol-_wallstrt)*3600
_solvtime=(_wallasol-_wallbsol)*3600
_posttime=(_walldone-_wallasol)*3600
_totaltim=(_walldone-_wallstrt)*3600
*get,_dlbratio,active,0,solu,dlbr
*get,_combtime,active,0,solu,comb
*get,_ssmode,active,0,solu,ssmm
*get,_ndofs,active,0,solu,ndof
*get,_sol_end_time,active,0,set,time
*if,_sol_end_time,eq,1.000000,then
/fclean				!clean distributed files
*endif
/com,--- Total number of nodes = %_numnode%
/com,--- Total number of elements = %_numelem%
/com,--- Element load balance ratio = %_dlbratio%
/com,--- Time to combine distributed files = %_combtime%
/com,--- Sparse memory mode = %_ssmode%
/com,--- Number of DOF = %_ndofs%
/wb,file,end               ! done with WB generated input
