/batch
/config,noeldb,1     ! force off writing results to database
*get,_wallstrt,active,,time,wall
! ANSYS input file written by Workbench version 2024 R1
! File used for geometry attach: C:\Medical_Device_Portifolio\CFD Analysis\Brake disc\Brake_disc_thermal_files\dp0\SYS\DM\SYS.scdoc
/title,Brake_disc_thermal--Modal (A5)
! ****** Begin Custom Load Command Snippet ******
/COM, ACT Extensions:
/COM,     LSDYNA, 2024.1
/COM,     5f463412-bd3e-484b-87e7-cbc0a665e474, wbex
/COM,/COM,     ANSYSMotion, 2024.1
/COM,     20180725-3f81-49eb-9f31-41364844c769, wbex
/COM,
! ****** End   Custom Load Command Snippet ******
*DIM,_wb_ProjectScratch_dir,string,248
_wb_ProjectScratch_dir(1) = 'C:\Medical_Device_Portifolio\CFD Analysis\Brake disc\_ProjectScratch\ScrCDE1\'
*DIM,_wb_SolverFiles_dir,string,248
_wb_SolverFiles_dir(1) = 'C:\Medical_Device_Portifolio\CFD Analysis\Brake disc\Brake_disc_thermal_files\dp0\SYS\MECH\'
*DIM,_wb_userfiles_dir,string,248
_wb_userfiles_dir(1) = 'C:\Medical_Device_Portifolio\CFD Analysis\Brake disc\Brake_disc_thermal_files\user_files\'
/com,--- Data in consistent MKS units. See Solving Units in the help system for more information.
/units,MKS
/nopr
/wb,file,start              !  signify a WB generated input file
/prep7
! Turn off shape checking because checks already performed inside WB mesher.
! See help system for more information.
SHPP,OFF,,NOWARN
/nolist
etcon,set             ! allow ANSYS to choose best KEYOP's for 180x elements, resets any applicable keyopt to MAPDL defaults
/com,*********** Nodes for the whole assembly ***********
nblock,3,,432
(1i9,3e20.9e3)
        1    -2.250000000E-01     0.000000000E+00     0.000000000E+00
        2    -2.000000000E-01     0.000000000E+00     0.000000000E+00
        3    -1.750000000E-01     0.000000000E+00     0.000000000E+00
        4    -1.500000000E-01     0.000000000E+00     3.469446952E-18
        5    -1.250000000E-01     0.000000000E+00    -2.465190329E-32
        6    -1.000000000E-01     0.000000000E+00     1.734723476E-18
        7    -7.500000000E-02     0.000000000E+00     0.000000000E+00
        8    -5.000000000E-02     0.000000000E+00     0.000000000E+00
        9    -2.500000000E-02     0.000000000E+00     0.000000000E+00
       10     0.000000000E+00     0.000000000E+00     0.000000000E+00
       11     2.500000000E-02     0.000000000E+00     0.000000000E+00
       12     5.000000000E-02     0.000000000E+00     0.000000000E+00
       13     7.500000000E-02     0.000000000E+00     0.000000000E+00
       14     1.000000000E-01     0.000000000E+00    -3.081487911E-33
       15     1.250000000E-01     0.000000000E+00     6.162975822E-33
       16     1.500000000E-01     0.000000000E+00    -1.734723476E-18
       17     1.750000000E-01     0.000000000E+00     0.000000000E+00
       18     2.000000000E-01     0.000000000E+00     0.000000000E+00
       19     2.250000000E-01     0.000000000E+00    -9.244463733E-33
       20     2.250000000E-01     1.000000000E-02     0.000000000E+00
! ... 374 like lines cut
/wb,elem,start            !  set before creation of elements
/com,*********** Elements for Body 1 "SYS\Solid" ***********
et,1,186
keyo,1,2,1          ! set full integration on SOLID186
eblock,19,solid,,40
(19i9)
        1        1        1        1        0        0        0        0       20        0        1       19       83       84      108       20       81       82       39
      201      350      352      203      207      347      263      205      200      348      349      264
        1        1        1        1        0        0        0        0       20        0        2       18       19      108      109       21       20       39       40
      196      203      376      199      204      205      262      209      197      200      264      266
        1        1        1        1        0        0        0        0       20        0        3       17       18      109      110       22       21       40       41
      192      199      377      195      208      209      265      212      193      197      266      268
        1        1        1        1        0        0        0        0       20        0        4       16       17      110      111       23       22       41       42
      188      195      378      191      211      212      267      215      189      193      268      270
        1        1        1        1        0        0        0        0       20        0        5       15       16      111      112       24       23       42       43
      184      191      379      187      214      215      269      218      185      189      270      272
        1        1        1        1        0        0        0        0       20        0        6       14       15      112      113       25       24       43       44
      180      187      380      183      217      218      271      221      181      185      272      274
        1        1        1        1        0        0        0        0       20        0        7       13       14      113      114       26       25       44       45
      176      183      381      179      220      221      273      224      177      181      274      276
        1        1        1        1        0        0        0        0       20        0        8       12       13      114      115       27       26       45       46
      172      179      382      175      223      224      275      227      173      177      276      278
        1        1        1        1        0        0        0        0       20        0        9       11       12      115      116       28       27       46       47
      168      175      383      171      226      227      277      230      169      173      278      280
        1        1        1        1        0        0        0        0       20        0       10       10       11      116      117       29       28       47       48
      164      171      384      167      229      230      279      233      165      169      280      282
! ... 61 like lines cut
!Material Id = {88F1CF63-DF5B-4C92-BC37-3B53FBFE7B89}
/wb,elem,end               !  done creating elements
/com,*********** Send User Defined Coordinate System(s) ***********
csys,0
toffst,273.15,  ! Temperature offset from absolute zero
/com,*********** Set Reference Temperature ***********
tref,22.
/wb,mat,start              !  starting to send materials
/com,*********** Send Materials ***********
Temperature = 'TEMP' ! Temperature
MP,DENS,1,7850,	! kg m^-3
MP,ALPX,1,1.2e-05,	! C^-1
MP,C,1,434,	! J kg^-1 C^-1
MP,KXX,1,60.5,	! W m^-1 C^-1
MP,RSVX,1,1.7e-07,	! kg m^3 A^-2 s^-3
MP,EX,1,200000000000,	! Pa
MP,NUXY,1,0.3,
MP,MURX,1,10000,
MP,UVID,1,66aa04e3-5ca7-48f0-aa73-c2806f6f3d56
MP,UMID,1,59002a79-71c2-428e-906b-55d7dbee100e

/wb,mat,end                !  done sending materials
!************************* Model Summary ********************
!SYS\Solid,	Structural Steel,	matid,	1
!************************* End Model Summary ********************
! get the diagonal of the bounding box. Needed later for other things
*get,_xmin,node,,mnloc,x
*get,_ymin,node,,mnloc,y
*get,_zmin,node,,mnloc,z
*get,_xmax,node,,mxloc,x
*get,_ymax,node,,mxloc,y
*get,_zmax,node,,mxloc,z
_ASMDIAG=(_xmax-_xmin)*(_xmax-_xmin)+(_ymax-_ymin)*(_ymax-_ymin)+(_zmax-_zmin)*(_zmax-_zmin)
_ASMDIAG=SQRT(_ASMDIAG)
/wb,contact,start          !  starting to send contact
/wb,contact,end            !  done creating contacts
/golist
/wb,load,start             !  starting to send loads
/com,*********** Fixed Supports ***********
CMBLOCK,_FIXEDSU,NODE,       13
(8i10)
        58        59        60       105       106       107       301       302
       303       304       306       373       374
cmsel,s,_FIXEDSU
d,all,all
nsel,all
/gst,on,on
fini
*get,_numnode,node,0,count
*get,_numelem,elem,0,count
*get, _MAXELEMNUM, elem, 0, NUM, MAX
*get, _MAXNODENUM, node, 0, NUM, MAX
*get, _MAXELEMTYPE, etyp, 0, NUM, MAX
*get, _MAXREALCONST, rcon, 0, NUM, MAX
/go
/wb,load,end               !  done creating loads
/com,--- Number of total nodes = %_numnode%
/com,--- Number of contact elements = 0
/com,--- Number of spring elements = 0
/com,--- Number of bearing elements = 0
/com,--- Number of solid elements = 40
/com,--- Number of condensed parts = 0
/com,--- Number of total elements = %_numelem%
*get,_wallbsol,active,,time,wall
/solu
antype,2                   ! modal analysis
_thickRatio=  0     ! Ratio of thick parts in the model
modopt,lanb,6
outres,erase
outres,all,none
outres,nsol,all
mxpand                    ! default expand in case of complex solution
dmpopt,esav,no
dmpopt,emat,no
dmpopt,full,no
! *********** WB SOLVE COMMAND ***********
! check interactive state
*get,ANSINTER_,active,,int
*if,ANSINTER_,ne,0,then
/eof
*endif
solve
/com *************** Write FE CONNECTORS ********* 
CEWRITE,file,ce,,INTE
*get,_nmodalsolproc,active,0,numcpu
fini
/nopr
*get,_numnode,node,0,count
*get,_numelem,elem,0,count
*get, _MAXELEMNUM, elem, 0, NUM, MAX
*get, _MAXNODENUM, node, 0, NUM, MAX,,,INTERNAL
*get, _MAXELEMTYPE, etyp, 0, NUM, MAX
*get, _MAXREALCONST, rcon, 0, NUM, MAX
*get,_NSOLTHREADS,active,0,ntfs
*get,_NSOLPROCESSES,active,0,npfs
/gopr
*get,_wallasol,active,,time,wall
/post1
/nopr
*dim,_direction,CHAR,6,1
_direction(1) = 'X'
_direction(2) = 'Y'
_direction(3) = 'Z'
_direction(4) = 'ROTX'
_direction(5) = 'ROTY'
_direction(6) = 'ROTZ'
*get,_lastLS,active,0,set,LSTP
*get,_beginset,active,0,set,nset,first,_lastLS
*get,_endset,active,0,set,nset,last,_lastLS
_nummodes = 0
*if,_endset,gt,0,then
_nummodes = _endset - _beginset + 1
*endif
*do,i_mode,1,_nummodes
   *do,j_component,1,6
			*get,PFACT_%i_mode%_%j_component%,MODE,%i_mode%,PFACT,,DIREC,_direction(%j_component%)
   *enddo
*enddo
*dim,_tmdirection,CHAR,6,1
_tmdirection(1) = 'X'
_tmdirection(2) = 'Y'
_tmdirection(3) = 'Z'
_tmdirection(4) = 'X'
_tmdirection(5) = 'Y'
_tmdirection(6) = 'Z'
*do,j_component,1,6
    *if,j_component,gt,3,then
        *get,TOTALMASS_%j_component%,ELEM,0,IOR,_tmdirection(%j_component%)
    *else
        *get,TOTALMASS_%j_component%,ELEM,0,MTOT,_tmdirection(%j_component%)
    *endif
*enddo
/gopr
xmlo,ENCODING,ISO-8859-1
xmlo,parm
/xml,parm,xml
fini
/gopr
*get,_walldone,active,,time,wall
_preptime=(_wallbsol-_wallstrt)*3600
_solvtime=(_wallasol-_wallbsol)*3600
_posttime=(_walldone-_wallasol)*3600
_totaltim=(_walldone-_wallstrt)*3600
*get,_dlbratio,active,0,solu,dlbr
*get,_combtime,active,0,solu,comb
*get,_ssmode,active,0,solu,ssmm
*get,_ndofs,active,0,solu,ndof
/fclean				!clean distributed files
/com,--- Total number of nodes = %_numnode%
/com,--- Total number of elements = %_numelem%
/com,--- Element load balance ratio = %_dlbratio%
/com,--- Time to combine distributed files = %_combtime%
/com,--- Sparse memory mode = %_ssmode%
/com,--- Number of DOF = %_ndofs%
/wb,file,end               ! done with WB generated input
