/batch
/config,noeldb,1     ! force off writing results to database
*get,_wallstrt,active,,time,wall
! ANSYS input file written by Workbench version 2024 R1
! File used for geometry attach: C:\Engineering Portifolio\FEA Projects in Ansys\Blotted flange analysis\Assembly.scdoc
/title,wbnew--Static Structural (A5)
! ****** Begin Custom Load Command Snippet ******
/COM, ACT Extensions:
/COM,     LSDYNA, 2024.1
/COM,     5f463412-bd3e-484b-87e7-cbc0a665e474, wbex
/COM,/COM,     ANSYSMotion, 2024.1
/COM,     20180725-3f81-49eb-9f31-41364844c769, wbex
/COM,
! ****** End   Custom Load Command Snippet ******
*DIM,_wb_ProjectScratch_dir,string,248
_wb_ProjectScratch_dir(1) = 'C:\Users\Hp\AppData\Local\Temp\WB_Hp_10984_2\_ProjectScratch\Scr75D6\'
*DIM,_wb_SolverFiles_dir,string,248
_wb_SolverFiles_dir(1) = 'C:\Users\Hp\AppData\Local\Temp\WB_Hp_10984_2\wbnew_files\dp0\SYS\MECH\'
*DIM,_wb_userfiles_dir,string,248
_wb_userfiles_dir(1) = 'C:\Users\Hp\AppData\Local\Temp\WB_Hp_10984_2\wbnew_files\user_files\'
/com,--- Data in consistent MKS units. See Solving Units in the help system for more information.
/units,MKS
/nopr
/wb,file,start              !  signify a WB generated input file
/prep7
! Turn off shape checking because checks already performed inside WB mesher.
! See help system for more information.
SHPP,OFF,,NOWARN
/nolist
etcon,set             ! allow ANSYS to choose best KEYOP's for 180x elements, resets any applicable keyopt to MAPDL defaults
/com,*********** Nodes for the whole assembly ***********
nblock,3,,96373
(1i9,3e20.9e3)
    56713    -3.962014030E-02    -9.230769231E-02     2.169177939E-02
    56714    -3.962014030E-02    -8.461538462E-02     2.169177939E-02
    56715    -3.962014030E-02    -7.692307692E-02     2.169177939E-02
    56716    -3.962014030E-02    -6.923076923E-02     2.169177939E-02
    56717    -3.962014030E-02    -6.153846154E-02     2.169177939E-02
    56718    -3.962014030E-02    -5.384615385E-02     2.169177939E-02
    56719    -3.962014030E-02    -4.615384615E-02     2.169177939E-02
    56720    -3.962014030E-02    -3.846153846E-02     2.169177939E-02
    56721    -3.962014030E-02    -3.076923077E-02     2.169177939E-02
    56722    -3.962014030E-02    -2.307692308E-02     2.169177939E-02
    56723    -3.962014030E-02    -1.538461538E-02     2.169177939E-02
    56724    -3.962014030E-02    -7.692307692E-03     2.169177939E-02
    56725     2.331813742E-02    -9.230769231E-02     3.849177537E-02
    56726     2.331813742E-02    -8.461538462E-02     3.849177537E-02
    56727     2.331813742E-02    -7.692307692E-02     3.849177537E-02
    56728     2.331813742E-02    -6.923076923E-02     3.849177537E-02
    56729     2.331813742E-02    -6.153846154E-02     3.849177537E-02
    56730     2.331813742E-02    -5.384615385E-02     3.849177537E-02
    56731     2.331813742E-02    -4.615384615E-02     3.849177537E-02
    56732     2.331813742E-02    -3.846153846E-02     3.849177537E-02
! ... 87593 like lines cut
/wb,elem,start            !  set before creation of elements
/com,*********** Elements for Body 1 "Component1\Solid" ***********
et,1,186
keyo,1,2,1          ! set full integration on SOLID186
eblock,19,solid,,1488
(19i9)
        1        1        1        1        0        0        0        0       20        0        1        4        6        7        8     1113     1111     1110     1109
     1908     1917     1922     1909     5544     5542     5538     5539     1912     1920     1924     1928
        1        1        1        1        0        0        0        0       20        0        2        4        8        7        6       22       26       25       24
     1909     1922     1917     1908     1983     1993     1989     1982     1911     1927     1923     1919
        1        1        1        1        0        0        0        0       20        0        3       22       26       25       24       40       44       43       42
     1983     1993     1989     1982     2042     2052     2048     2041     1985     1997     1994     1991
        1        1        1        1        0        0        0        0       20        0        4       40       44       43       42       58       62       61       60
     2042     2052     2048     2041     2101     2111     2107     2100     2044     2056     2053     2050
        1        1        1        1        0        0        0        0       20        0        5       58       62       61       60       76       80       79       78
     2101     2111     2107     2100     2160     2170     2166     2159     2103     2115     2112     2109
        1        1        1        1        0        0        0        0       20        0        6       76       80       79       78       94       98       97       96
     2160     2170     2166     2159     2219     2229     2225     2218     2162     2174     2171     2168
        1        1        1        1        0        0        0        0       20        0        7       94       98       97       96      112      116      115      114
     2219     2229     2225     2218     2278     2288     2284     2277     2221     2233     2230     2227
        1        1        1        1        0        0        0        0       20        0        8      112      116      115      114      130      134      133      132
     2278     2288     2284     2277     2337     2347     2343     2336     2280     2292     2289     2286
        1        1        1        1        0        0        0        0       20        0        9      130      134      133      132      148      152      151      150
     2337     2347     2343     2336     2396     2406     2402     2395     2339     2351     2348     2345
        1        1        1        1        0        0        0        0       20        0       10      148      152      151      150      166      170      169      168
     2396     2406     2402     2395     2455     2465     2461     2454     2398     2410     2407     2404
! ... 2957 like lines cut
!Material Id = {6EBF0D9E-1EA2-42DB-B84E-98AD1D3428FA}
/com,*********** Elements for Body 2 "Component1\Solid" ***********
et,2,186
keyo,2,2,1          ! set full integration on SOLID186
eblock,19,solid,,1488
(19i9)
        2        2        2        2        0        0        0        0       20        0     1489     7093     7095     7096     7097     8202     8200     8199     8198
     8997     9006     9011     8998    12633    12631    12627    12628     9001     9009     9013     9017
        2        2        2        2        0        0        0        0       20        0     1490     7093     7097     7096     7095     7111     7115     7114     7113
     8998     9011     9006     8997     9072     9082     9078     9071     9000     9016     9012     9008
        2        2        2        2        0        0        0        0       20        0     1491     7111     7115     7114     7113     7129     7133     7132     7131
     9072     9082     9078     9071     9131     9141     9137     9130     9074     9086     9083     9080
        2        2        2        2        0        0        0        0       20        0     1492     7129     7133     7132     7131     7147     7151     7150     7149
     9131     9141     9137     9130     9190     9200     9196     9189     9133     9145     9142     9139
        2        2        2        2        0        0        0        0       20        0     1493     7147     7151     7150     7149     7165     7169     7168     7167
     9190     9200     9196     9189     9249     9259     9255     9248     9192     9204     9201     9198
        2        2        2        2        0        0        0        0       20        0     1494     7165     7169     7168     7167     7183     7187     7186     7185
     9249     9259     9255     9248     9308     9318     9314     9307     9251     9263     9260     9257
        2        2        2        2        0        0        0        0       20        0     1495     7183     7187     7186     7185     7201     7205     7204     7203
     9308     9318     9314     9307     9367     9377     9373     9366     9310     9322     9319     9316
        2        2        2        2        0        0        0        0       20        0     1496     7201     7205     7204     7203     7219     7223     7222     7221
     9367     9377     9373     9366     9426     9436     9432     9425     9369     9381     9378     9375
        2        2        2        2        0        0        0        0       20        0     1497     7219     7223     7222     7221     7237     7241     7240     7239
     9426     9436     9432     9425     9485     9495     9491     9484     9428     9440     9437     9434
        2        2        2        2        0        0        0        0       20        0     1498     7237     7241     7240     7239     7255     7259     7258     7257
     9485     9495     9491     9484     9544     9554     9550     9543     9487     9499     9496     9493
! ... 2957 like lines cut
!Material Id = {19276907-1FA2-4CDF-AE95-214B6D37325B}
/com,*********** Elements for Body 3 "Component1\Solid" ***********
et,3,186
keyo,3,2,1          ! set full integration on SOLID186
eblock,19,solid,,1488
(19i9)
        3        3        3        3        0        0        0        0       20        0     2977    14182    14184    14185    14186    15291    15289    15288    15287
    16086    16095    16100    16087    19722    19720    19716    19717    16090    16098    16102    16106
        3        3        3        3        0        0        0        0       20        0     2978    14182    14186    14185    14184    14200    14204    14203    14202
    16087    16100    16095    16086    16161    16171    16167    16160    16089    16105    16101    16097
        3        3        3        3        0        0        0        0       20        0     2979    14200    14204    14203    14202    14218    14222    14221    14220
    16161    16171    16167    16160    16220    16230    16226    16219    16163    16175    16172    16169
        3        3        3        3        0        0        0        0       20        0     2980    14218    14222    14221    14220    14236    14240    14239    14238
    16220    16230    16226    16219    16279    16289    16285    16278    16222    16234    16231    16228
        3        3        3        3        0        0        0        0       20        0     2981    14236    14240    14239    14238    14254    14258    14257    14256
    16279    16289    16285    16278    16338    16348    16344    16337    16281    16293    16290    16287
        3        3        3        3        0        0        0        0       20        0     2982    14254    14258    14257    14256    14272    14276    14275    14274
    16338    16348    16344    16337    16397    16407    16403    16396    16340    16352    16349    16346
        3        3        3        3        0        0        0        0       20        0     2983    14272    14276    14275    14274    14290    14294    14293    14292
    16397    16407    16403    16396    16456    16466    16462    16455    16399    16411    16408    16405
        3        3        3        3        0        0        0        0       20        0     2984    14290    14294    14293    14292    14308    14312    14311    14310
    16456    16466    16462    16455    16515    16525    16521    16514    16458    16470    16467    16464
        3        3        3        3        0        0        0        0       20        0     2985    14308    14312    14311    14310    14326    14330    14329    14328
    16515    16525    16521    16514    16574    16584    16580    16573    16517    16529    16526    16523
        3        3        3        3        0        0        0        0       20        0     2986    14326    14330    14329    14328    14344    14348    14347    14346
    16574    16584    16580    16573    16633    16643    16639    16632    16576    16588    16585    16582
! ... 2957 like lines cut
!Material Id = {D3DDB082-AB4B-4293-9E30-EFD94FCDE7CC}
/com,*********** Elements for Body 4 "Component1\Solid" ***********
et,4,186
keyo,4,2,1          ! set full integration on SOLID186
eblock,19,solid,,1488
(19i9)
        4        4        4        4        0        0        0        0       20        0     4465    21271    21273    21274    21275    22380    22378    22377    22376
    23175    23184    23189    23176    26811    26809    26805    26806    23179    23187    23191    23195
        4        4        4        4        0        0        0        0       20        0     4466    21271    21275    21274    21273    21289    21293    21292    21291
    23176    23189    23184    23175    23250    23260    23256    23249    23178    23194    23190    23186
        4        4        4        4        0        0        0        0       20        0     4467    21289    21293    21292    21291    21307    21311    21310    21309
    23250    23260    23256    23249    23309    23319    23315    23308    23252    23264    23261    23258
        4        4        4        4        0        0        0        0       20        0     4468    21307    21311    21310    21309    21325    21329    21328    21327
    23309    23319    23315    23308    23368    23378    23374    23367    23311    23323    23320    23317
        4        4        4        4        0        0        0        0       20        0     4469    21325    21329    21328    21327    21343    21347    21346    21345
    23368    23378    23374    23367    23427    23437    23433    23426    23370    23382    23379    23376
        4        4        4        4        0        0        0        0       20        0     4470    21343    21347    21346    21345    21361    21365    21364    21363
    23427    23437    23433    23426    23486    23496    23492    23485    23429    23441    23438    23435
        4        4        4        4        0        0        0        0       20        0     4471    21361    21365    21364    21363    21379    21383    21382    21381
    23486    23496    23492    23485    23545    23555    23551    23544    23488    23500    23497    23494
        4        4        4        4        0        0        0        0       20        0     4472    21379    21383    21382    21381    21397    21401    21400    21399
    23545    23555    23551    23544    23604    23614    23610    23603    23547    23559    23556    23553
        4        4        4        4        0        0        0        0       20        0     4473    21397    21401    21400    21399    21415    21419    21418    21417
    23604    23614    23610    23603    23663    23673    23669    23662    23606    23618    23615    23612
        4        4        4        4        0        0        0        0       20        0     4474    21415    21419    21418    21417    21433    21437    21436    21435
    23663    23673    23669    23662    23722    23732    23728    23721    23665    23677    23674    23671
! ... 2957 like lines cut
!Material Id = {E43BF700-8F99-49B7-92D2-F51B93F63F50}
/com,*********** Elements for Body 5 "Component1\Solid" ***********
et,5,186
keyo,5,2,1          ! set full integration on SOLID186
eblock,19,solid,,1488
(19i9)
        5        5        5        5        0        0        0        0       20        0     5953    28360    28362    28363    28364    29469    29467    29466    29465
    30264    30273    30278    30265    33900    33898    33894    33895    30268    30276    30280    30284
        5        5        5        5        0        0        0        0       20        0     5954    28360    28364    28363    28362    28378    28382    28381    28380
    30265    30278    30273    30264    30339    30349    30345    30338    30267    30283    30279    30275
        5        5        5        5        0        0        0        0       20        0     5955    28378    28382    28381    28380    28396    28400    28399    28398
    30339    30349    30345    30338    30398    30408    30404    30397    30341    30353    30350    30347
        5        5        5        5        0        0        0        0       20        0     5956    28396    28400    28399    28398    28414    28418    28417    28416
    30398    30408    30404    30397    30457    30467    30463    30456    30400    30412    30409    30406
        5        5        5        5        0        0        0        0       20        0     5957    28414    28418    28417    28416    28432    28436    28435    28434
    30457    30467    30463    30456    30516    30526    30522    30515    30459    30471    30468    30465
        5        5        5        5        0        0        0        0       20        0     5958    28432    28436    28435    28434    28450    28454    28453    28452
    30516    30526    30522    30515    30575    30585    30581    30574    30518    30530    30527    30524
        5        5        5        5        0        0        0        0       20        0     5959    28450    28454    28453    28452    28468    28472    28471    28470
    30575    30585    30581    30574    30634    30644    30640    30633    30577    30589    30586    30583
        5        5        5        5        0        0        0        0       20        0     5960    28468    28472    28471    28470    28486    28490    28489    28488
    30634    30644    30640    30633    30693    30703    30699    30692    30636    30648    30645    30642
        5        5        5        5        0        0        0        0       20        0     5961    28486    28490    28489    28488    28504    28508    28507    28506
    30693    30703    30699    30692    30752    30762    30758    30751    30695    30707    30704    30701
        5        5        5        5        0        0        0        0       20        0     5962    28504    28508    28507    28506    28522    28526    28525    28524
    30752    30762    30758    30751    30811    30821    30817    30810    30754    30766    30763    30760
! ... 2957 like lines cut
!Material Id = {F35BF20B-E28E-4E15-A08E-44E47E407FC7}
/com,*********** Elements for Body 6 "Component1\Solid" ***********
et,6,186
keyo,6,2,1          ! set full integration on SOLID186
eblock,19,solid,,1488
(19i9)
        6        6        6        6        0        0        0        0       20        0     7441    35449    35451    35452    35453    36558    36556    36555    36554
    37353    37362    37367    37354    40989    40987    40983    40984    37357    37365    37369    37373
        6        6        6        6        0        0        0        0       20        0     7442    35449    35453    35452    35451    35467    35471    35470    35469
    37354    37367    37362    37353    37428    37438    37434    37427    37356    37372    37368    37364
        6        6        6        6        0        0        0        0       20        0     7443    35467    35471    35470    35469    35485    35489    35488    35487
    37428    37438    37434    37427    37487    37497    37493    37486    37430    37442    37439    37436
        6        6        6        6        0        0        0        0       20        0     7444    35485    35489    35488    35487    35503    35507    35506    35505
    37487    37497    37493    37486    37546    37556    37552    37545    37489    37501    37498    37495
        6        6        6        6        0        0        0        0       20        0     7445    35503    35507    35506    35505    35521    35525    35524    35523
    37546    37556    37552    37545    37605    37615    37611    37604    37548    37560    37557    37554
        6        6        6        6        0        0        0        0       20        0     7446    35521    35525    35524    35523    35539    35543    35542    35541
    37605    37615    37611    37604    37664    37674    37670    37663    37607    37619    37616    37613
        6        6        6        6        0        0        0        0       20        0     7447    35539    35543    35542    35541    35557    35561    35560    35559
    37664    37674    37670    37663    37723    37733    37729    37722    37666    37678    37675    37672
        6        6        6        6        0        0        0        0       20        0     7448    35557    35561    35560    35559    35575    35579    35578    35577
    37723    37733    37729    37722    37782    37792    37788    37781    37725    37737    37734    37731
        6        6        6        6        0        0        0        0       20        0     7449    35575    35579    35578    35577    35593    35597    35596    35595
    37782    37792    37788    37781    37841    37851    37847    37840    37784    37796    37793    37790
        6        6        6        6        0        0        0        0       20        0     7450    35593    35597    35596    35595    35611    35615    35614    35613
    37841    37851    37847    37840    37900    37910    37906    37899    37843    37855    37852    37849
! ... 2957 like lines cut
!Material Id = {DB892748-5AD0-4CC7-819B-E5E08E84FF29}
/com,*********** Elements for Body 7 "Component1\Solid" ***********
et,7,186
keyo,7,2,1          ! set full integration on SOLID186
eblock,19,solid,,1488
(19i9)
        7        7        7        7        0        0        0        0       20        0     8929    42538    42540    42541    42542    43647    43645    43644    43643
    44442    44451    44456    44443    48078    48076    48072    48073    44446    44454    44458    44462
        7        7        7        7        0        0        0        0       20        0     8930    42538    42542    42541    42540    42556    42560    42559    42558
    44443    44456    44451    44442    44517    44527    44523    44516    44445    44461    44457    44453
        7        7        7        7        0        0        0        0       20        0     8931    42556    42560    42559    42558    42574    42578    42577    42576
    44517    44527    44523    44516    44576    44586    44582    44575    44519    44531    44528    44525
        7        7        7        7        0        0        0        0       20        0     8932    42574    42578    42577    42576    42592    42596    42595    42594
    44576    44586    44582    44575    44635    44645    44641    44634    44578    44590    44587    44584
        7        7        7        7        0        0        0        0       20        0     8933    42592    42596    42595    42594    42610    42614    42613    42612
    44635    44645    44641    44634    44694    44704    44700    44693    44637    44649    44646    44643
        7        7        7        7        0        0        0        0       20        0     8934    42610    42614    42613    42612    42628    42632    42631    42630
    44694    44704    44700    44693    44753    44763    44759    44752    44696    44708    44705    44702
        7        7        7        7        0        0        0        0       20        0     8935    42628    42632    42631    42630    42646    42650    42649    42648
    44753    44763    44759    44752    44812    44822    44818    44811    44755    44767    44764    44761
        7        7        7        7        0        0        0        0       20        0     8936    42646    42650    42649    42648    42664    42668    42667    42666
    44812    44822    44818    44811    44871    44881    44877    44870    44814    44826    44823    44820
        7        7        7        7        0        0        0        0       20        0     8937    42664    42668    42667    42666    42682    42686    42685    42684
    44871    44881    44877    44870    44930    44940    44936    44929    44873    44885    44882    44879
        7        7        7        7        0        0        0        0       20        0     8938    42682    42686    42685    42684    42700    42704    42703    42702
    44930    44940    44936    44929    44989    44999    44995    44988    44932    44944    44941    44938
! ... 2957 like lines cut
!Material Id = {5632EABA-E5D7-412D-A920-9276EFBCFF61}
/com,*********** Elements for Body 8 "Component1\Solid" ***********
et,8,186
keyo,8,2,1          ! set full integration on SOLID186
eblock,19,solid,,1488
(19i9)
        8        8        8        8        0        0        0        0       20        0    10417    49627    49629    49630    49631    50736    50734    50733    50732
    51531    51540    51545    51532    55167    55165    55161    55162    51535    51543    51547    51551
        8        8        8        8        0        0        0        0       20        0    10418    49627    49631    49630    49629    49645    49649    49648    49647
    51532    51545    51540    51531    51606    51616    51612    51605    51534    51550    51546    51542
        8        8        8        8        0        0        0        0       20        0    10419    49645    49649    49648    49647    49663    49667    49666    49665
    51606    51616    51612    51605    51665    51675    51671    51664    51608    51620    51617    51614
        8        8        8        8        0        0        0        0       20        0    10420    49663    49667    49666    49665    49681    49685    49684    49683
    51665    51675    51671    51664    51724    51734    51730    51723    51667    51679    51676    51673
        8        8        8        8        0        0        0        0       20        0    10421    49681    49685    49684    49683    49699    49703    49702    49701
    51724    51734    51730    51723    51783    51793    51789    51782    51726    51738    51735    51732
        8        8        8        8        0        0        0        0       20        0    10422    49699    49703    49702    49701    49717    49721    49720    49719
    51783    51793    51789    51782    51842    51852    51848    51841    51785    51797    51794    51791
        8        8        8        8        0        0        0        0       20        0    10423    49717    49721    49720    49719    49735    49739    49738    49737
    51842    51852    51848    51841    51901    51911    51907    51900    51844    51856    51853    51850
        8        8        8        8        0        0        0        0       20        0    10424    49735    49739    49738    49737    49753    49757    49756    49755
    51901    51911    51907    51900    51960    51970    51966    51959    51903    51915    51912    51909
        8        8        8        8        0        0        0        0       20        0    10425    49753    49757    49756    49755    49771    49775    49774    49773
    51960    51970    51966    51959    52019    52029    52025    52018    51962    51974    51971    51968
        8        8        8        8        0        0        0        0       20        0    10426    49771    49775    49774    49773    49789    49793    49792    49791
    52019    52029    52025    52018    52078    52088    52084    52077    52021    52033    52030    52027
! ... 2957 like lines cut
!Material Id = {A0D53D35-3569-434E-BDE8-0D8678C2402F}
/com,*********** Elements for Body 9 "Assembly\Solid" ***********
et,9,186
keyo,9,2,1          ! set full integration on SOLID186
eblock,19,solid,,650
(19i9)
        9        9        9        9        0        0        0        0       20        0    11905    56979    56980    57354    57355    57352    57353    57810    57860
    58770    58778    59800    58773    59796    59799    60725    59798    58772    58777    59802    59806
        9        9        9        9        0        0        0        0       20        0    11906    56979    57355    57354    56980    57009    57393    57392    57010
    58773    59800    58778    58770    58862    59915    58866    58860    58771    59805    59801    58775
        9        9        9        9        0        0        0        0       20        0    11907    57009    57393    57392    57010    57039    57431    57430    57040
    58862    59915    58866    58860    58950    59992    58954    58948    58861    59919    59916    58864
        9        9        9        9        0        0        0        0       20        0    11908    57039    57431    57430    57040    57069    57469    57468    57070
    58950    59992    58954    58948    59038    60069    59042    59036    58949    59996    59993    58952
        9        9        9        9        0        0        0        0       20        0    11909    57069    57469    57468    57070    57099    57507    57506    57100
    59038    60069    59042    59036    59126    60146    59130    59124    59037    60073    60070    59040
        9        9        9        9        0        0        0        0       20        0    11910    57099    57507    57506    57100    57129    57545    57544    57130
    59126    60146    59130    59124    59214    60223    59218    59212    59125    60150    60147    59128
        9        9        9        9        0        0        0        0       20        0    11911    57129    57545    57544    57130    57159    57583    57582    57160
    59214    60223    59218    59212    59302    60300    59306    59300    59213    60227    60224    59216
        9        9        9        9        0        0        0        0       20        0    11912    57159    57583    57582    57160    57189    57621    57620    57190
    59302    60300    59306    59300    59390    60377    59394    59388    59301    60304    60301    59304
        9        9        9        9        0        0        0        0       20        0    11913    57189    57621    57620    57190    57219    57659    57658    57220
    59390    60377    59394    59388    59478    60454    59482    59476    59389    60381    60378    59392
        9        9        9        9        0        0        0        0       20        0    11914    57219    57659    57658    57220    57249    57697    57696    57250
    59478    60454    59482    59476    59566    60531    59570    59564    59477    60458    60455    59480
! ... 1281 like lines cut
!Material Id = {3E25A6C2-1831-4022-924F-EB183F075A08}
/com,*********** Elements for Body 10 "Assembly\Solid" ***********
et,10,186
keyo,10,2,1          ! set full integration on SOLID186
eblock,19,solid,,2084
(19i9)
       10       10       10       10        0        0        0        0       20        0    12555    60775    60781    61636    60820    62322    62320    62035    62307
    63931    63963    64158    63932    69138    68567    68565    69131    63934    63965    67429    64159
       10       10       10       10        0        0        0        0       20        0    12556    60775    60820    61636    60781    60776    60821    61637    60782
    63932    64158    63963    63931    63938    64163    63968    63937    63930    64155    67427    63962
       10       10       10       10        0        0        0        0       20        0    12557    60776    60821    61637    60782    60777    60822    61638    60783
    63938    64163    63968    63937    63942    64166    63971    63941    63936    64160    67430    63967
       10       10       10       10        0        0        0        0       20        0    12558    60777    60822    61638    60783    62323    62338    62610    62325
    63942    64166    63971    63941    69143    69199    69150    69142    63944    64167    67433    63973
       10       10       10       10        0        0        0        0       20        0    12559    60775    60820    60850    61633    62322    62307    62297    62036
    63932    64156    64284    63933    69131    69120    68569    68570    63934    64159    64285    67421
       10       10       10       10        0        0        0        0       20        0    12560    60775    61633    60850    60820    60776    61634    60851    60821
    63933    64284    64156    63932    63939    64288    64161    63938    63930    67420    64282    64155
       10       10       10       10        0        0        0        0       20        0    12561    60776    61634    60851    60821    60777    61635    60852    60822
    63939    64288    64161    63938    63943    64290    64164    63942    63936    67423    64286    64160
       10       10       10       10        0        0        0        0       20        0    12562    60777    61635    60852    60822    62323    62609    62348    62338
    63943    64290    64164    63942    69144    69227    69197    69143    63944    67425    64291    64167
       10       10       10       10        0        0        0        0       20        0    12563    60775    61633    63150    63151    62322    62036    63187    63188
    63933    67422    70895    63935    68570    68571    70960    69141    63934    67421    70897    70900
       10       10       10       10        0        0        0        0       20        0    12564    60775    63151    63150    61633    60776    63162    63161    61634
    63935    70895    67422    63933    63940    70925    67424    63939    63930    70899    70896    67420
! ... 4149 like lines cut
!Material Id = {7FFC4651-AC77-4DBF-97BE-4563B8D1C463}
/com,*********** Elements for Body 11 "Assembly\Solid" ***********
et,11,186
keyo,11,2,1          ! set full integration on SOLID186
eblock,19,solid,,2040
(19i9)
       11       11       11       11        0        0        0        0       20        0    14639    72356    73193    73196    72812    73715    73436    73435    73563
    75834    79147    77722    75833    79738    79733    79735    80099    75835    79148    79157    77723
       11       11       11       11        0        0        0        0       20        0    14640    72356    72812    73196    73193    72357    72813    73197    73194
    75833    77722    79147    75834    75838    77727    79151    75839    75831    77720    79156    79146
       11       11       11       11        0        0        0        0       20        0    14641    72357    72813    73197    73194    72358    72814    73198    73195
    75838    77727    79151    75839    75841    77730    79153    75842    75836    77725    79159    79150
       11       11       11       11        0        0        0        0       20        0    14642    72358    72814    73198    73195    73784    73936    74064    74063
    75841    77730    79153    75842    80526    80953    81258    80527    75843    77731    79161    79154
       11       11       11       11        0        0        0        0       20        0    14643    72353    72356    72812    72815    73716    73715    73563    73562
    75819    75833    77721    75821    80377    80099    80095    80096    75822    75835    77723    77735
       11       11       11       11        0        0        0        0       20        0    14644    72353    72815    72812    72356    72354    72816    72813    72357
    75821    77721    75833    75819    75826    77726    75838    75824    75818    77733    77720    75831
       11       11       11       11        0        0        0        0       20        0    14645    72354    72816    72813    72357    72355    72817    72814    72358
    75826    77726    75838    75824    75829    77729    75841    75827    75823    77737    77725    75836
       11       11       11       11        0        0        0        0       20        0    14646    72355    72817    72814    72358    73783    73937    73936    73784
    75829    77729    75841    75827    80524    80952    80526    80522    75830    77741    77731    75843
       11       11       11       11        0        0        0        0       20        0    14647    72419    73178    72446    73352    73694    73441    73685    73383
    76122    76235    76237    76123    79754    79753    79544    79546    76124    79097    76238    79473
       11       11       11       11        0        0        0        0       20        0    14648    72419    73352    72446    73178    72420    73353    72447    73179
    76123    76237    76235    76122    76129    76244    76242    76128    76119    79472    76233    79096
! ... 4061 like lines cut
!Material Id = {1E85901B-A54A-4748-A20E-88D08F230353}
/com,*********** Elements for Body 12 "Assembly\Solid" ***********
et,12,186
keyo,12,2,1          ! set full integration on SOLID186
eblock,19,solid,,663
(19i9)
       12       12       12       12        0        0        0        0       20        0    16679    83508    84257    84169    84168    83663    84630    84252    84253
    84711    86655    86651    84710    85305    86836    86835    85304    84709    86847    86654    86652
       12       12       12       12        0        0        0        0       20        0    16680    83508    84168    84169    84257    83509    84130    84131    84287
    84710    86651    86655    84711    84714    86548    86552    84715    84707    86549    86551    86846
       12       12       12       12        0        0        0        0       20        0    16681    83509    84130    84131    84287    83510    84092    84093    84317
    84714    86548    86552    84715    84718    86445    86449    84719    84712    86446    86448    86935
       12       12       12       12        0        0        0        0       20        0    16682    83510    84092    84093    84317    83511    84054    84055    84347
    84718    86445    86449    84719    84722    86342    86346    84723    84716    86343    86345    86996
       12       12       12       12        0        0        0        0       20        0    16683    83511    84054    84055    84347    83512    84016    84017    84377
    84722    86342    86346    84723    84726    86239    86243    84727    84720    86240    86242    87057
       12       12       12       12        0        0        0        0       20        0    16684    83512    84016    84017    84377    83513    83978    83979    84407
    84726    86239    86243    84727    84730    86136    86140    84731    84724    86137    86139    87118
       12       12       12       12        0        0        0        0       20        0    16685    83513    83978    83979    84407    83514    83940    83941    84437
    84730    86136    86140    84731    84734    86033    86037    84735    84728    86034    86036    87179
       12       12       12       12        0        0        0        0       20        0    16686    83514    83940    83941    84437    83515    83902    83903    84467
    84734    86033    86037    84735    84738    85930    85934    84739    84732    85931    85933    87240
       12       12       12       12        0        0        0        0       20        0    16687    83515    83902    83903    84467    83516    83864    83865    84497
    84738    85930    85934    84739    84742    85827    85831    84743    84736    85828    85830    87301
       12       12       12       12        0        0        0        0       20        0    16688    83516    83864    83865    84497    83517    83826    83827    84527
    84742    85827    85831    84743    84746    85724    85728    84747    84740    85725    85727    87362
! ... 1307 like lines cut
!Material Id = {631EEC4E-4D4E-4859-A13D-DC35D352AD4B}
/wb,elem,end               !  done creating elements
/com,*********** Send User Defined Coordinate System(s) ***********
csys,0
toffst,273.15,  ! Temperature offset from absolute zero
/com,*********** Set Reference Temperature ***********
tref,22.
/wb,mat,start              !  starting to send materials
/com,*********** Send Materials ***********
Temperature = 'TEMP' ! Temperature
MP,DENS,1,7850,	! kg m^-3
MP,ALPX,1,1.2e-05,	! C^-1
MP,C,1,434,	! J kg^-1 C^-1
MP,KXX,1,60.5,	! W m^-1 C^-1
MP,RSVX,1,1.7e-07,	! kg m^3 A^-2 s^-3
MP,EX,1,200000000000,	! Pa
MP,NUXY,1,0.3,
MP,MURX,1,10000,
MP,UVID,1,2b450943-793c-4e69-8992-5952146927f6
MP,UMID,1,59002a79-71c2-428e-906b-55d7dbee100e

Temperature = 'TEMP' ! Temperature
MP,DENS,2,7850,	! kg m^-3
MP,ALPX,2,1.2e-05,	! C^-1
MP,C,2,434,	! J kg^-1 C^-1
MP,KXX,2,60.5,	! W m^-1 C^-1
MP,RSVX,2,1.7e-07,	! kg m^3 A^-2 s^-3
MP,EX,2,200000000000,	! Pa
MP,NUXY,2,0.3,
MP,MURX,2,10000,
MP,UVID,2,2b450943-793c-4e69-8992-5952146927f6
MP,UMID,2,59002a79-71c2-428e-906b-55d7dbee100e

Temperature = 'TEMP' ! Temperature
MP,DENS,3,7850,	! kg m^-3
MP,ALPX,3,1.2e-05,	! C^-1
MP,C,3,434,	! J kg^-1 C^-1
MP,KXX,3,60.5,	! W m^-1 C^-1
MP,RSVX,3,1.7e-07,	! kg m^3 A^-2 s^-3
MP,EX,3,200000000000,	! Pa
MP,NUXY,3,0.3,
MP,MURX,3,10000,
MP,UVID,3,2b450943-793c-4e69-8992-5952146927f6
MP,UMID,3,59002a79-71c2-428e-906b-55d7dbee100e

Temperature = 'TEMP' ! Temperature
MP,DENS,4,7850,	! kg m^-3
MP,ALPX,4,1.2e-05,	! C^-1
MP,C,4,434,	! J kg^-1 C^-1
MP,KXX,4,60.5,	! W m^-1 C^-1
MP,RSVX,4,1.7e-07,	! kg m^3 A^-2 s^-3
MP,EX,4,200000000000,	! Pa
MP,NUXY,4,0.3,
MP,MURX,4,10000,
MP,UVID,4,2b450943-793c-4e69-8992-5952146927f6
MP,UMID,4,59002a79-71c2-428e-906b-55d7dbee100e

Temperature = 'TEMP' ! Temperature
MP,DENS,5,7850,	! kg m^-3
MP,ALPX,5,1.2e-05,	! C^-1
MP,C,5,434,	! J kg^-1 C^-1
MP,KXX,5,60.5,	! W m^-1 C^-1
MP,RSVX,5,1.7e-07,	! kg m^3 A^-2 s^-3
MP,EX,5,200000000000,	! Pa
MP,NUXY,5,0.3,
MP,MURX,5,10000,
MP,UVID,5,2b450943-793c-4e69-8992-5952146927f6
MP,UMID,5,59002a79-71c2-428e-906b-55d7dbee100e

Temperature = 'TEMP' ! Temperature
MP,DENS,6,7850,	! kg m^-3
MP,ALPX,6,1.2e-05,	! C^-1
MP,C,6,434,	! J kg^-1 C^-1
MP,KXX,6,60.5,	! W m^-1 C^-1
MP,RSVX,6,1.7e-07,	! kg m^3 A^-2 s^-3
MP,EX,6,200000000000,	! Pa
MP,NUXY,6,0.3,
MP,MURX,6,10000,
MP,UVID,6,2b450943-793c-4e69-8992-5952146927f6
MP,UMID,6,59002a79-71c2-428e-906b-55d7dbee100e

Temperature = 'TEMP' ! Temperature
MP,DENS,7,7850,	! kg m^-3
MP,ALPX,7,1.2e-05,	! C^-1
MP,C,7,434,	! J kg^-1 C^-1
MP,KXX,7,60.5,	! W m^-1 C^-1
MP,RSVX,7,1.7e-07,	! kg m^3 A^-2 s^-3
MP,EX,7,200000000000,	! Pa
MP,NUXY,7,0.3,
MP,MURX,7,10000,
MP,UVID,7,2b450943-793c-4e69-8992-5952146927f6
MP,UMID,7,59002a79-71c2-428e-906b-55d7dbee100e

Temperature = 'TEMP' ! Temperature
MP,DENS,8,7850,	! kg m^-3
MP,ALPX,8,1.2e-05,	! C^-1
MP,C,8,434,	! J kg^-1 C^-1
MP,KXX,8,60.5,	! W m^-1 C^-1
MP,RSVX,8,1.7e-07,	! kg m^3 A^-2 s^-3
MP,EX,8,200000000000,	! Pa
MP,NUXY,8,0.3,
MP,MURX,8,10000,
MP,UVID,8,2b450943-793c-4e69-8992-5952146927f6
MP,UMID,8,59002a79-71c2-428e-906b-55d7dbee100e

Temperature = 'TEMP' ! Temperature
MP,DENS,9,7850,	! kg m^-3
MP,ALPX,9,1.2e-05,	! C^-1
MP,C,9,434,	! J kg^-1 C^-1
MP,KXX,9,60.5,	! W m^-1 C^-1
MP,RSVX,9,1.7e-07,	! kg m^3 A^-2 s^-3
MP,EX,9,200000000000,	! Pa
MP,NUXY,9,0.3,
MP,MURX,9,10000,
MP,UVID,9,2b450943-793c-4e69-8992-5952146927f6
MP,UMID,9,59002a79-71c2-428e-906b-55d7dbee100e

Temperature = 'TEMP' ! Temperature
MP,DENS,10,7850,	! kg m^-3
MP,ALPX,10,1.2e-05,	! C^-1
MP,C,10,434,	! J kg^-1 C^-1
MP,KXX,10,60.5,	! W m^-1 C^-1
MP,RSVX,10,1.7e-07,	! kg m^3 A^-2 s^-3
MP,EX,10,200000000000,	! Pa
MP,NUXY,10,0.3,
MP,MURX,10,10000,
MP,UVID,10,2b450943-793c-4e69-8992-5952146927f6
MP,UMID,10,59002a79-71c2-428e-906b-55d7dbee100e

Temperature = 'TEMP' ! Temperature
MP,DENS,11,7850,	! kg m^-3
MP,ALPX,11,1.2e-05,	! C^-1
MP,C,11,434,	! J kg^-1 C^-1
MP,KXX,11,60.5,	! W m^-1 C^-1
MP,RSVX,11,1.7e-07,	! kg m^3 A^-2 s^-3
MP,EX,11,200000000000,	! Pa
MP,NUXY,11,0.3,
MP,MURX,11,10000,
MP,UVID,11,2b450943-793c-4e69-8992-5952146927f6
MP,UMID,11,59002a79-71c2-428e-906b-55d7dbee100e

Temperature = 'TEMP' ! Temperature
MP,DENS,12,7850,	! kg m^-3
MP,ALPX,12,1.2e-05,	! C^-1
MP,C,12,434,	! J kg^-1 C^-1
MP,KXX,12,60.5,	! W m^-1 C^-1
MP,RSVX,12,1.7e-07,	! kg m^3 A^-2 s^-3
MP,EX,12,200000000000,	! Pa
MP,NUXY,12,0.3,
MP,MURX,12,10000,
MP,UVID,12,2b450943-793c-4e69-8992-5952146927f6
MP,UMID,12,59002a79-71c2-428e-906b-55d7dbee100e

/wb,mat,end                !  done sending materials
!************************* Model Summary ********************
!Component1\Solid,	Structural Steel,	matid,	1
!Component1\Solid,	Structural Steel,	matid,	2
!Component1\Solid,	Structural Steel,	matid,	3
!Component1\Solid,	Structural Steel,	matid,	4
!Component1\Solid,	Structural Steel,	matid,	5
!Component1\Solid,	Structural Steel,	matid,	6
!Component1\Solid,	Structural Steel,	matid,	7
!Component1\Solid,	Structural Steel,	matid,	8
!Assembly\Solid,	Structural Steel,	matid,	9
!Assembly\Solid,	Structural Steel,	matid,	10
!Assembly\Solid,	Structural Steel,	matid,	11
!Assembly\Solid,	Structural Steel,	matid,	12
!************************* End Model Summary ********************
! get the diagonal of the bounding box. Needed later for other things
*get,_xmin,node,,mnloc,x
*get,_ymin,node,,mnloc,y
*get,_zmin,node,,mnloc,z
*get,_xmax,node,,mxloc,x
*get,_ymax,node,,mxloc,y
*get,_zmax,node,,mxloc,z
_ASMDIAG=(_xmax-_xmin)*(_xmax-_xmin)+(_ymax-_ymin)*(_ymax-_ymin)+(_zmax-_zmin)*(_zmax-_zmin)
_ASMDIAG=SQRT(_ASMDIAG)
/wb,contact,start          !  starting to send contact
/com,*********** Create Contact "Contact Region 2" ***********
/com,            Real Constant Set For Above Contact Is 14 & 13 
*set,tid,14
*set,cid,13
r,tid
r,cid
et,tid,170
et,cid,174
eblock,10,,,45
(15i9)
    29714       14       14       14        0    56917    56919    56948    56948    58591    58597    56948    58592
    29715       14       14       14        0    56924    56923    56887    56887    58606    58511    56887    58512
    29716       14       14       14        0    56931    56876    56932    56932    58481    58482    56932    58622
    29717       14       14       14        0    56914    56915    56946    56946    58582    58586    56946    58583
    29718       14       14       14        0    56909    56910    56942    56942    58567    58571    56942    58568
    29719       14       14       14        0    56950    56948    56919    56918    58656    58597    58594    58595
    29720       14       14       14        0    56880    56922    56921    56869    58492    58602    58461    58459
    29721       14       14       14        0    56880    56869    56884    56885    58459    58460    58503    58491
    29722       14       14       14        0    56884    56869    56921    56883    58460    58461    58501    58500
    29723       14       14       14        0    56877    56930    56929    56870    58484    58618    58464    58462
    29724       14       14       14        0    56877    56870    56894    56895    58462    58463    58530    58483
    29725       14       14       14        0    56894    56870    56929    56893    58463    58464    58528    58527
    29726       14       14       14        0    56936    56872    56871    56937    58470    58465    58467    58632
    29727       14       14       14        0    56876    56875    56933    56932    58477    58479    58624    58482
    29728       14       14       14        0    56879    56924    56887    56888    58489    58512    58510    58488
    29729       14       14       14        0    56948    56947    56916    56917    58654    58589    58588    58592
    29730       14       14       14        0    56947    56946    56915    56916    58652    58586    58585    58589
    29731       14       14       14        0    56946    56945    56913    56914    58650    58580    58579    58583
    29732       14       14       14        0    56945    56944    56912    56913    58648    58577    58576    58580
    29733       14       14       14        0    56944    56943    56911    56912    58646    58574    58573    58577
! ... 26 like lines cut
eblock,10,,,45
(15i9)
    29759       13       13       13        0    56917    56919    56948    56948    58591    58597    56948    58592
    29760       13       13       13        0    56924    56923    56887    56887    58606    58511    56887    58512
    29761       13       13       13        0    56931    56876    56932    56932    58481    58482    56932    58622
    29762       13       13       13        0    56914    56915    56946    56946    58582    58586    56946    58583
    29763       13       13       13        0    56909    56910    56942    56942    58567    58571    56942    58568
    29764       13       13       13        0    56950    56948    56919    56918    58656    58597    58594    58595
    29765       13       13       13        0    56880    56922    56921    56869    58492    58602    58461    58459
    29766       13       13       13        0    56880    56869    56884    56885    58459    58460    58503    58491
    29767       13       13       13        0    56884    56869    56921    56883    58460    58461    58501    58500
    29768       13       13       13        0    56877    56930    56929    56870    58484    58618    58464    58462
    29769       13       13       13        0    56877    56870    56894    56895    58462    58463    58530    58483
    29770       13       13       13        0    56894    56870    56929    56893    58463    58464    58528    58527
    29771       13       13       13        0    56936    56872    56871    56937    58470    58465    58467    58632
    29772       13       13       13        0    56876    56875    56933    56932    58477    58479    58624    58482
    29773       13       13       13        0    56879    56924    56887    56888    58489    58512    58510    58488
    29774       13       13       13        0    56948    56947    56916    56917    58654    58589    58588    58592
    29775       13       13       13        0    56947    56946    56915    56916    58652    58586    58585    58589
    29776       13       13       13        0    56946    56945    56913    56914    58650    58580    58579    58583
    29777       13       13       13        0    56945    56944    56912    56913    58648    58577    58576    58580
    29778       13       13       13        0    56944    56943    56911    56912    58646    58574    58573    58577
! ... 26 like lines cut
eblock,10,,,94
(15i9)
    29804       13       14       13        0    62320    62035    62307    62322    68567    68565    69131    69138
    29805       13       14       13        0    62035    62308    62118    62034    68566    68801    68563    68561
    29806       13       14       13        0    62320    62033    62308    62035    68559    68558    68566    68567
    29807       13       14       13        0    61959    62303    62104    62321    68319    68761    68762    68320
    29808       13       14       13        0    63907    62321    62104    63908    69140    68762    68763    72232
    29809       13       14       13        0    63906    62103    62321    63907    68759    68758    69140    72231
    29810       13       14       13        0    61959    62321    62103    62281    68320    68758    68757    68317
    29811       13       14       13        0    62011    62104    62303    62311    68490    68761    69126    68491
    29812       13       14       13        0    62291    62090    62089    62316    68725    68721    68722    69115
    29813       13       14       13        0    63885    62319    62084    63886    69137    68709    68710    72210
    29814       13       14       13        0    63884    62082    62319    63885    68704    68703    69137    72209
    29815       13       14       13        0    62268    62267    62077    62076    69092    68689    68685    68686
    29816       13       14       13        0    62291    62063    62091    62090    68649    68648    68724    68725
    29817       13       14       13        0    62304    62316    62089    62088    69129    68722    68718    68719
    29818       13       14       13        0    62080    62079    62265    62264    68692    68693    69090    68696
    29819       13       14       13        0    62298    62297    62307    62117    69119    69120    68798    68797
    29820       13       14       13        0    62308    61952    62119    62118    68292    68290    68800    68801
    29821       13       14       13        0    62120    62119    61952    62273    68803    68290    68291    68807
    29822       13       14       13        0    61939    62093    61940    62254    68237    68243    68244    68240
    29823       13       14       13        0    62061    62071    62254    61940    68642    68671    68244    68241
! ... 75 like lines cut
eblock,10,,,94
(15i9)
    29898       14       13       14        0    62320    62035    62307    62322    68567    68565    69131    69138
    29899       14       13       14        0    62035    62308    62118    62034    68566    68801    68563    68561
    29900       14       13       14        0    62320    62033    62308    62035    68559    68558    68566    68567
    29901       14       13       14        0    61959    62303    62104    62321    68319    68761    68762    68320
    29902       14       13       14        0    63907    62321    62104    63908    69140    68762    68763    72232
    29903       14       13       14        0    63906    62103    62321    63907    68759    68758    69140    72231
    29904       14       13       14        0    61959    62321    62103    62281    68320    68758    68757    68317
    29905       14       13       14        0    62011    62104    62303    62311    68490    68761    69126    68491
    29906       14       13       14        0    62291    62090    62089    62316    68725    68721    68722    69115
    29907       14       13       14        0    63885    62319    62084    63886    69137    68709    68710    72210
    29908       14       13       14        0    63884    62082    62319    63885    68704    68703    69137    72209
    29909       14       13       14        0    62268    62267    62077    62076    69092    68689    68685    68686
    29910       14       13       14        0    62291    62063    62091    62090    68649    68648    68724    68725
    29911       14       13       14        0    62304    62316    62089    62088    69129    68722    68718    68719
    29912       14       13       14        0    62080    62079    62265    62264    68692    68693    69090    68696
    29913       14       13       14        0    62298    62297    62307    62117    69119    69120    68798    68797
    29914       14       13       14        0    62308    61952    62119    62118    68292    68290    68800    68801
    29915       14       13       14        0    62120    62119    61952    62273    68803    68290    68291    68807
    29916       14       13       14        0    61939    62093    61940    62254    68237    68243    68244    68240
    29917       14       13       14        0    62061    62071    62254    61940    68642    68671    68244    68241
! ... 75 like lines cut
keyo,cid,8,2               ! auto create asymmetric contact (from Program Controlled setting)
keyo,cid,10,0              ! adjust contact stiffness each NR iteration (from Program Controlled setting)
keyo,cid,12,5              ! bonded always
keyo,cid,18,1              ! small sliding turned on by application
keyo,cid,2,2               ! MPC for bonded contacts (from Program Controlled setting)
keyo,tid,5,0               ! Automatic constraint type detection
keyo,cid,4,2               ! on nodal point - normal to target surface (from Program Controlled setting)
keyo,cid,9,1               ! ignore initial gaps/penetration
keyo,cid,7,0               ! No Prediction
rmod,tid,3,10.      ! FKN
rmod,tid,5,0.       ! ICONT
rmod,tid,6,0.       ! PINB
rmod,tid,10,0.      ! CNOF
rmod,tid,12,0.      ! FKT
rmod,tid,36,71      ! WB DSID
rmod,cid,3,10.      ! FKN
rmod,cid,5,0.       ! ICONT
rmod,cid,6,0.       ! PINB
rmod,cid,10,0.      ! CNOF
rmod,cid,12,0.      ! FKT
rmod,cid,36,71      ! WB DSID
/com,*********** Create Contact "Contact Region 3" ***********
/com,            Real Constant Set For Above Contact Is 16 & 15 
*set,tid,16
*set,cid,15
r,tid
r,cid
et,tid,170
et,cid,174
eblock,10,,,45
(15i9)
    29992       16       16       16        0    57859    57352    57860    57860    59797    59798    57860    60774
    29993       16       16       16        0    57328    57829    57327    57327    59753    59751    57327    59750
    29994       16       16       16        0    57335    57336    56861    56861    59765    58439    56861    58438
    29995       16       16       16        0    57856    57350    57857    57857    59792    59793    57857    60771
    29996       16       16       16        0    57851    57346    57852    57852    59783    59784    57852    60766
    29997       16       16       16        0    57860    57352    57353    57810    59798    59796    59799    60725
    29998       16       16       16        0    57325    57326    56857    56868    59746    58426    58425    58457
    29999       16       16       16        0    57826    56868    56857    57827    58458    58425    58427    60741
    30000       16       16       16        0    57325    56868    57826    57825    58457    58458    60740    59747
    30001       16       16       16        0    57333    57334    56860    56867    59761    58435    58434    58455
    30002       16       16       16        0    57836    56867    56860    57837    58456    58434    58436    60751
    30003       16       16       16        0    57333    56867    57836    57835    58455    58456    60750    59762
    30004       16       16       16        0    56866    56865    57340    57341    58450    58451    59771    58453
    30005       16       16       16        0    57337    56862    56861    57336    58442    58437    58439    59767
    30006       16       16       16        0    57829    57328    56858    57830    59753    58429    58431    60744
    30007       16       16       16        0    57858    57351    57352    57859    59795    59794    59797    60773
    30008       16       16       16        0    57857    57350    57351    57858    59793    59791    59795    60772
    30009       16       16       16        0    57855    57349    57350    57856    59790    59789    59792    60770
    30010       16       16       16        0    57854    57348    57349    57855    59788    59787    59790    60769
    30011       16       16       16        0    57853    57347    57348    57854    59786    59785    59788    60768
! ... 26 like lines cut
eblock,10,,,45
(15i9)
    30037       15       15       15        0    57859    57352    57860    57860    59797    59798    57860    60774
    30038       15       15       15        0    57328    57829    57327    57327    59753    59751    57327    59750
    30039       15       15       15        0    57335    57336    56861    56861    59765    58439    56861    58438
    30040       15       15       15        0    57856    57350    57857    57857    59792    59793    57857    60771
    30041       15       15       15        0    57851    57346    57852    57852    59783    59784    57852    60766
    30042       15       15       15        0    57860    57352    57353    57810    59798    59796    59799    60725
    30043       15       15       15        0    57325    57326    56857    56868    59746    58426    58425    58457
    30044       15       15       15        0    57826    56868    56857    57827    58458    58425    58427    60741
    30045       15       15       15        0    57325    56868    57826    57825    58457    58458    60740    59747
    30046       15       15       15        0    57333    57334    56860    56867    59761    58435    58434    58455
    30047       15       15       15        0    57836    56867    56860    57837    58456    58434    58436    60751
    30048       15       15       15        0    57333    56867    57836    57835    58455    58456    60750    59762
    30049       15       15       15        0    56866    56865    57340    57341    58450    58451    59771    58453
    30050       15       15       15        0    57337    56862    56861    57336    58442    58437    58439    59767
    30051       15       15       15        0    57829    57328    56858    57830    59753    58429    58431    60744
    30052       15       15       15        0    57858    57351    57352    57859    59795    59794    59797    60773
    30053       15       15       15        0    57857    57350    57351    57858    59793    59791    59795    60772
    30054       15       15       15        0    57855    57349    57350    57856    59790    59789    59792    60770
    30055       15       15       15        0    57854    57348    57349    57855    59788    59787    59790    60769
    30056       15       15       15        0    57853    57347    57348    57854    59786    59785    59788    60768
! ... 26 like lines cut
eblock,10,,,90
(15i9)
    30082       15       16       15        0    73728    73525    73729    73729    79997    79998    73729    80391
    30083       15       16       15        0    73489    73526    73525    73525    79895    79996    73525    79894
    30084       15       16       15        0    75301    73533    73661    75302    80019    80018    80319    83454
    30085       15       16       15        0    75302    73661    73534    75303    80319    80021    80022    83455
    30086       15       16       15        0    73539    73739    73403    73743    80034    79624    79625    80035
    30087       15       16       15        0    75340    73414    73565    75341    79665    79662    80105    83493
    30088       15       16       15        0    73565    73414    73693    73692    79662    79663    80356    80104
    30089       15       16       15        0    73744    73414    75340    75339    79664    79665    83492    80405
    30090       15       16       15        0    73554    73553    73376    73697    80072    79517    79519    80075
    30091       15       16       15        0    73512    73551    73550    73749    79961    80063    80066    79962
    30092       15       16       15        0    73550    73747    73513    73749    80065    79965    79966    80066
    30093       15       16       15        0    75314    73748    73544    75315    80406    80048    80049    83467
    30094       15       16       15        0    75313    73542    73748    75314    80044    80043    80406    83466
    30095       15       16       15        0    73740    73747    73550    73734    80401    80065    80064    80396
    30096       15       16       15        0    73442    73414    73744    73443    79661    79664    79760    79756
    30097       15       16       15        0    75338    73741    73744    75339    80403    80402    80405    83491
    30098       15       16       15        0    73553    73552    73511    73376    80070    79959    79516    79517
    30099       15       16       15        0    73511    73552    73551    73512    79959    80068    79961    79958
    30100       15       16       15        0    73488    73527    73526    73489    79890    80000    79895    79889
    30101       15       16       15        0    73528    73527    73488    73745    80002    79890    79891    80005
! ... 71 like lines cut
eblock,10,,,90
(15i9)
    30172       16       15       16        0    73728    73525    73729    73729    79997    79998    73729    80391
    30173       16       15       16        0    73489    73526    73525    73525    79895    79996    73525    79894
    30174       16       15       16        0    75301    73533    73661    75302    80019    80018    80319    83454
    30175       16       15       16        0    75302    73661    73534    75303    80319    80021    80022    83455
    30176       16       15       16        0    73539    73739    73403    73743    80034    79624    79625    80035
    30177       16       15       16        0    75340    73414    73565    75341    79665    79662    80105    83493
    30178       16       15       16        0    73565    73414    73693    73692    79662    79663    80356    80104
    30179       16       15       16        0    73744    73414    75340    75339    79664    79665    83492    80405
    30180       16       15       16        0    73554    73553    73376    73697    80072    79517    79519    80075
    30181       16       15       16        0    73512    73551    73550    73749    79961    80063    80066    79962
    30182       16       15       16        0    73550    73747    73513    73749    80065    79965    79966    80066
    30183       16       15       16        0    75314    73748    73544    75315    80406    80048    80049    83467
    30184       16       15       16        0    75313    73542    73748    75314    80044    80043    80406    83466
    30185       16       15       16        0    73740    73747    73550    73734    80401    80065    80064    80396
    30186       16       15       16        0    73442    73414    73744    73443    79661    79664    79760    79756
    30187       16       15       16        0    75338    73741    73744    75339    80403    80402    80405    83491
    30188       16       15       16        0    73553    73552    73511    73376    80070    79959    79516    79517
    30189       16       15       16        0    73511    73552    73551    73512    79959    80068    79961    79958
    30190       16       15       16        0    73488    73527    73526    73489    79890    80000    79895    79889
    30191       16       15       16        0    73528    73527    73488    73745    80002    79890    79891    80005
! ... 71 like lines cut
keyo,cid,8,2               ! auto create asymmetric contact (from Program Controlled setting)
keyo,cid,10,0              ! adjust contact stiffness each NR iteration (from Program Controlled setting)
keyo,cid,12,5              ! bonded always
keyo,cid,18,1              ! small sliding turned on by application
keyo,cid,2,0               ! augmented Lagrange (from Program Controlled setting)
keyo,cid,4,0               ! on Gauss point (from Program Controlled setting)
keyo,cid,9,1               ! ignore initial gaps/penetration
keyo,cid,7,0               ! No Prediction
rmod,tid,3,10.      ! FKN
rmod,tid,5,0.       ! ICONT
rmod,tid,6,0.       ! PINB
rmod,tid,10,0.      ! CNOF
rmod,tid,12,0.      ! FKT
rmod,tid,36,74      ! WB DSID
rmod,cid,3,10.      ! FKN
rmod,cid,5,0.       ! ICONT
rmod,cid,6,0.       ! PINB
rmod,cid,10,0.      ! CNOF
rmod,cid,12,0.      ! FKT
rmod,cid,36,74      ! WB DSID
/com,*********** Create Contact "Contact Region 5" ***********
/com,            Real Constant Set For Above Contact Is 18 & 17 
*set,tid,18
*set,cid,17
r,tid
r,cid
et,tid,170
et,cid,174
eblock,10,,,94
(15i9)
    30262       18       18       18        0    62338    62610    62325    62323    69199    69150    69142    69143
    30263       18       18       18        0    62527    62337    62610    62611    69193    69194    69925    69723
    30264       18       18       18        0    62337    62612    62325    62610    69195    69151    69150    69194
    30265       18       18       18        0    62541    62342    62686    62324    69209    69210    69148    69146
    30266       18       18       18        0    62541    62324    62733    62732    69146    69149    70103    69762
    30267       18       18       18        0    62324    62542    62734    62733    69147    69764    70105    69149
    30268       18       18       18        0    62542    62324    62686    62364    69147    69148    69278    69276
    30269       18       18       18        0    62342    62541    62634    62334    69209    69761    69185    69183
    30270       18       18       18        0    62556    62555    62354    62329    69798    69244    69166    69168
    30271       18       18       18        0    62561    62326    62755    62754    69154    69156    70147    69815
    30272       18       18       18        0    62326    62563    62756    62755    69155    69818    70149    69156
    30273       18       18       18        0    62568    62378    62377    62569    69319    69315    69317    69830
    30274       18       18       18        0    62554    62582    62354    62555    69796    69245    69244    69795
    30275       18       18       18        0    62556    62329    62341    62557    69168    69165    69207    69800
    30276       18       18       18        0    62380    62566    62565    62381    69325    69821    69330    69324
    30277       18       18       18        0    62338    62348    62347    62528    69197    69221    69223    69198
    30278       18       18       18        0    62526    62693    62337    62527    69721    69196    69193    69720
    30279       18       18       18        0    62693    62526    62525    62372    69721    69718    69299    69301
    30280       18       18       18        0    62705    62552    62706    62391    69788    69789    69360    69359
    30281       18       18       18        0    62391    62574    62584    62705    69358    69845    69867    69359
! ... 75 like lines cut
eblock,10,,,94
(15i9)
    30356       17       17       17        0    62338    62610    62325    62323    69199    69150    69142    69143
    30357       17       17       17        0    62527    62337    62610    62611    69193    69194    69925    69723
    30358       17       17       17        0    62337    62612    62325    62610    69195    69151    69150    69194
    30359       17       17       17        0    62541    62342    62686    62324    69209    69210    69148    69146
    30360       17       17       17        0    62541    62324    62733    62732    69146    69149    70103    69762
    30361       17       17       17        0    62324    62542    62734    62733    69147    69764    70105    69149
    30362       17       17       17        0    62542    62324    62686    62364    69147    69148    69278    69276
    30363       17       17       17        0    62342    62541    62634    62334    69209    69761    69185    69183
    30364       17       17       17        0    62556    62555    62354    62329    69798    69244    69166    69168
    30365       17       17       17        0    62561    62326    62755    62754    69154    69156    70147    69815
    30366       17       17       17        0    62326    62563    62756    62755    69155    69818    70149    69156
    30367       17       17       17        0    62568    62378    62377    62569    69319    69315    69317    69830
    30368       17       17       17        0    62554    62582    62354    62555    69796    69245    69244    69795
    30369       17       17       17        0    62556    62329    62341    62557    69168    69165    69207    69800
    30370       17       17       17        0    62380    62566    62565    62381    69325    69821    69330    69324
    30371       17       17       17        0    62338    62348    62347    62528    69197    69221    69223    69198
    30372       17       17       17        0    62526    62693    62337    62527    69721    69196    69193    69720
    30373       17       17       17        0    62693    62526    62525    62372    69721    69718    69299    69301
    30374       17       17       17        0    62705    62552    62706    62391    69788    69789    69360    69359
    30375       17       17       17        0    62391    62574    62584    62705    69358    69845    69867    69359
! ... 75 like lines cut
eblock,10,,,45
(15i9)
    30450       17       18       17        0    83714    83713    83704    83704    85443    85420    83704    85421
    30451       17       18       17        0    83686    83685    83737    83737    85366    85367    83737    85370
    30452       17       18       17        0    83677    83746    83747    83747    85343    85509    83747    85344
    30453       17       18       17        0    83718    83700    83719    83719    85406    85407    83719    85453
    30454       17       18       17        0    83720    83719    83700    83700    85455    85407    83700    85408
    30455       17       18       17        0    83680    83666    83745    83744    85312    85313    85505    85352
    30456       17       18       17        0    83680    83679    83677    83666    85349    85342    85311    85312
    30457       17       18       17        0    83705    83704    83713    83712    85419    85420    85441    85424
    30458       17       18       17        0    83676    83665    83740    83739    85308    85310    85495    85341
    30459       17       18       17        0    83740    83665    83683    83741    85310    85309    85361    85497
    30460       17       18       17        0    83701    83700    83718    83717    85405    85406    85451    85411
    30461       17       18       17        0    83677    83747    83745    83666    85344    85507    85313    85311
    30462       17       18       17        0    83675    83686    83737    83736    85337    85370    85489    85339
    30463       17       18       17        0    83672    83671    83691    83690    85326    85327    85380    85330
    30464       17       18       17        0    83690    83689    83673    83672    85377    85332    85329    85330
    30465       17       18       17        0    83667    83695    83694    83668    85315    85388    85318    85314
    30466       17       18       17        0    83700    83699    83721    83720    85402    85403    85457    85408
    30467       17       18       17        0    83699    83698    83722    83721    85399    85400    85459    85403
    30468       17       18       17        0    83698    83697    83723    83722    85396    85397    85461    85400
    30469       17       18       17        0    83697    83696    83724    83723    85393    85394    85463    85397
! ... 26 like lines cut
eblock,10,,,45
(15i9)
    30495       18       17       18        0    83714    83713    83704    83704    85443    85420    83704    85421
    30496       18       17       18        0    83686    83685    83737    83737    85366    85367    83737    85370
    30497       18       17       18        0    83677    83746    83747    83747    85343    85509    83747    85344
    30498       18       17       18        0    83718    83700    83719    83719    85406    85407    83719    85453
    30499       18       17       18        0    83720    83719    83700    83700    85455    85407    83700    85408
    30500       18       17       18        0    83680    83666    83745    83744    85312    85313    85505    85352
    30501       18       17       18        0    83680    83679    83677    83666    85349    85342    85311    85312
    30502       18       17       18        0    83705    83704    83713    83712    85419    85420    85441    85424
    30503       18       17       18        0    83676    83665    83740    83739    85308    85310    85495    85341
    30504       18       17       18        0    83740    83665    83683    83741    85310    85309    85361    85497
    30505       18       17       18        0    83701    83700    83718    83717    85405    85406    85451    85411
    30506       18       17       18        0    83677    83747    83745    83666    85344    85507    85313    85311
    30507       18       17       18        0    83675    83686    83737    83736    85337    85370    85489    85339
    30508       18       17       18        0    83672    83671    83691    83690    85326    85327    85380    85330
    30509       18       17       18        0    83690    83689    83673    83672    85377    85332    85329    85330
    30510       18       17       18        0    83667    83695    83694    83668    85315    85388    85318    85314
    30511       18       17       18        0    83700    83699    83721    83720    85402    85403    85457    85408
    30512       18       17       18        0    83699    83698    83722    83721    85399    85400    85459    85403
    30513       18       17       18        0    83698    83697    83723    83722    85396    85397    85461    85400
    30514       18       17       18        0    83697    83696    83724    83723    85393    85394    85463    85397
! ... 26 like lines cut
keyo,cid,8,2               ! auto create asymmetric contact (from Program Controlled setting)
keyo,cid,10,0              ! adjust contact stiffness each NR iteration (from Program Controlled setting)
keyo,cid,12,5              ! bonded always
keyo,cid,18,1              ! small sliding turned on by application
keyo,cid,2,2               ! MPC for bonded contacts (from Program Controlled setting)
keyo,tid,5,0               ! Automatic constraint type detection
keyo,cid,4,2               ! on nodal point - normal to target surface (from Program Controlled setting)
keyo,cid,9,1               ! ignore initial gaps/penetration
keyo,cid,7,0               ! No Prediction
rmod,tid,3,10.      ! FKN
rmod,tid,5,0.       ! ICONT
rmod,tid,6,0.       ! PINB
rmod,tid,10,0.      ! CNOF
rmod,tid,12,0.      ! FKT
rmod,tid,36,80      ! WB DSID
rmod,cid,3,10.      ! FKN
rmod,cid,5,0.       ! ICONT
rmod,cid,6,0.       ! PINB
rmod,cid,10,0.      ! CNOF
rmod,cid,12,0.      ! FKT
rmod,cid,36,80      ! WB DSID
nsel,all
esel,all
/wb,contact,end            !  done creating contacts
/golist
/wb,load,start             !  starting to send loads
/com,*********** Fixed Supports ***********
CMBLOCK,_FIXEDSU,NODE,      214
(8i10)
     56857     56858     56859     56860     56861     56862     56863     56864
     56865     56866     56867     56868     57311     57324     57325     57326
     57327     57328     57329     57330     57331     57332     57333     57334
     57335     57336     57337     57338     57339     57340     57341     57342
     57343     57344     57345     57346     57347     57348     57349     57350
     57351     57352     57353     57810     57811     57824     57825     57826
     57827     57828     57829     57830     57831     57832     57833     57834
     57835     57836     57837     57838     57839     57840     57841     57842
     57843     57844     57845     57846     57847     57848     57849     57850
     57851     57852     57853     57854     57855     57856     57857     57858
     57859     57860     58425     58426     58427     58428     58429     58430
     58431     58432     58433     58434     58435     58436     58437     58438
     58439     58440     58441     58442     58443     58444     58445     58446
     58447     58448     58449     58450     58451     58452     58453     58454
     58455     58456     58457     58458     59717     59718     59719     59744
     59745     59746     59747     59748     59749     59750     59751     59752
     59753     59754     59755     59756     59757     59758     59759     59760
     59761     59762     59763     59764     59765     59766     59767     59768
     59769     59770     59771     59772     59773     59774     59775     59776
     59777     59778     59779     59780     59781     59782     59783     59784
! ... 7 like lines cut
cmsel,s,_FIXEDSU
d,all,all
nsel,all
/com,*********** Define Pressure Using Surface Effect Elements "Pressure" ***********
et,19,154
mat,19
eblock,10,,,403
(15i9)
    30540       19       19       19        0    57281    57312    56949    56920    59660    58659    58600    58601
    30541       19       19       19        0    57311    57324    57323    56951    59717    59742    58664    58663
    30542       19       19       19        0    57281    57251    57313    57312    59572    59573    59720    59660
    30543       19       19       19        0    57251    57221    57314    57313    59484    59485    59722    59573
    30544       19       19       19        0    57221    57191    57315    57314    59396    59397    59724    59485
    30545       19       19       19        0    57191    57161    57316    57315    59308    59309    59726    59397
    30546       19       19       19        0    57161    57131    57317    57316    59220    59221    59728    59309
    30547       19       19       19        0    57131    57101    57318    57317    59132    59133    59730    59221
    30548       19       19       19        0    57101    57071    57319    57318    59044    59045    59732    59133
    30549       19       19       19        0    57071    57041    57320    57319    58956    58957    59734    59045
    30550       19       19       19        0    57041    57011    57321    57320    58868    58869    59736    58957
    30551       19       19       19        0    57011    56981    57322    57321    58780    58781    59738    58869
    30552       19       19       19        0    56981    56951    57323    57322    58662    58664    59740    58781
    30553       19       19       19        0    56951    56952    57325    57311    58661    58668    59718    58663
    30554       19       19       19        0    56981    56982    56952    56951    58779    58667    58661    58662
    30555       19       19       19        0    57011    57012    56982    56981    58867    58784    58779    58780
    30556       19       19       19        0    57041    57042    57012    57011    58955    58872    58867    58868
    30557       19       19       19        0    57071    57072    57042    57041    59043    58960    58955    58956
    30558       19       19       19        0    57101    57102    57072    57071    59131    59048    59043    59044
    30559       19       19       19        0    57131    57132    57102    57101    59219    59136    59131    59132
! ... 384 like lines cut
esel,s,type,,19
keyop,19,7,0                ! Use deformed area for application of load
esel,all
/com,*********** Define Pressure Using Surface Effect Elements "Pressure 2" ***********
et,20,154
mat,20
eblock,10,,,403
(15i9)
    30943       20       20       20        0    84585    84616    83707    83678    87540    85431    85346    85348
    30944       20       20       20        0    84615    84628    84627    84255    87570    87583    86841    86840
    30945       20       20       20        0    84585    84555    84617    84616    87479    87480    87572    87540
    30946       20       20       20        0    84555    84525    84618    84617    87418    87419    87573    87480
    30947       20       20       20        0    84525    84495    84619    84618    87357    87358    87574    87419
    30948       20       20       20        0    84495    84465    84620    84619    87296    87297    87575    87358
    30949       20       20       20        0    84465    84435    84621    84620    87235    87236    87576    87297
    30950       20       20       20        0    84435    84405    84622    84621    87174    87175    87577    87236
    30951       20       20       20        0    84405    84375    84623    84622    87113    87114    87578    87175
    30952       20       20       20        0    84375    84345    84624    84623    87052    87053    87579    87114
    30953       20       20       20        0    84345    84315    84625    84624    86991    86992    87580    87053
    30954       20       20       20        0    84315    84285    84626    84625    86930    86931    87581    86992
    30955       20       20       20        0    84285    84255    84627    84626    86839    86841    87582    86931
    30956       20       20       20        0    84255    84256    84629    84615    86838    86844    87571    86840
    30957       20       20       20        0    84285    84286    84256    84255    86929    86843    86838    86839
    30958       20       20       20        0    84315    84316    84286    84285    86990    86933    86929    86930
    30959       20       20       20        0    84345    84346    84316    84315    87051    86994    86990    86991
    30960       20       20       20        0    84375    84376    84346    84345    87112    87055    87051    87052
    30961       20       20       20        0    84405    84406    84376    84375    87173    87116    87112    87113
    30962       20       20       20        0    84435    84436    84406    84405    87234    87177    87173    87174
! ... 384 like lines cut
esel,s,type,,20
keyop,20,7,0                ! Use deformed area for application of load
esel,all
/com,*********** Create nodes required for Bolt Pretension loads ***********
n,87613,0.,0.,0.
/com,*********** Create Bolt Pretension "Bolt Pretension 2" ***********
*set,_pretnode,87613
_nbolt101 = 87613               ! that will be the pretension node number
local,11,1,0.,0.,0.,90.,0.,0.
nmod,87613,0,0,0,,,,1      ! move pretension node to bolt center, don't update centroid
*set,_tid,21
et,_tid,179
type,_tid
real,_tid
mat,_tid
secnum,_tid
esel,s,type,,1
esel,a,type,,8
esel,a,type,,7
esel,a,type,,2
esel,a,type,,3
esel,a,type,,6
esel,a,type,,5
esel,a,type,,4
*set,_wbpstol,1.60623787873515e-004
*get,_echck1,elem,,num,max    ! make sure psmesh command was successful 
psmesh,_tid,,87613,all,,11,z,0.0,,_wbpstol,_tid,cmebolt,cmnbolt
*get,_echck2,elem,,num,max    ! make sure psmesh command was successful 
*if,_echck1,eq,_echck2,then
  *msg,error
  THE PRETENSION LOAD WAS NOT ABLE TO BE APPLIED. & 
  MAKE SURE THE LOAD WAS NOT APPLIED TO A HOLE AND THAT &
  THE LOAD IS NOT APPLIED MORE THAN ONCE PER SURFACE
*endif
esel,all
nsel,all
csys,0
esel,all
/gst,on,on
fini
*get,_numnode,node,0,count
*get,_numelem,elem,0,count
*get, _MAXELEMNUM, elem, 0, NUM, MAX
*get, _MAXNODENUM, node, 0, NUM, MAX
*get, _MAXELEMTYPE, etyp, 0, NUM, MAX
*get, _MAXREALCONST, rcon, 0, NUM, MAX
/go
/wb,load,end               !  done creating loads
/com,--- Number of total nodes = %_numnode%
/com,--- Number of contact elements = 1632
/com,--- Number of spring elements = 0
/com,--- Number of bearing elements = 0
/com,--- Number of solid elements = 17341
/com,--- Number of condensed parts = 0
/com,--- Number of total elements = %_numelem%
*get,_wallbsol,active,,time,wall
/com,****************************************************************************
/com,*************************    SOLUTION       ********************************
/com,****************************************************************************
/solu
antype,0                   ! static analysis
_thickRatio=0.833   ! Ratio of thick parts in the model
eqsl,pcg,1e-8,,,,,,1
cntr,print,1               ! print out contact info and also make no initial contact an error
cncheck,dmp		!	Enable program controlled contact splitting for distributed memory parallel run
dmpoption,emat,no             ! Don't combine emat file for DANSYS
dmpoption,esav,no             ! Don't combine esav file for DANSYS
nldiag,cont,iter           ! print out contact info each equilibrium iteration
rescontrol,,none                 ! Do not keep any restart files
/com,****************************************************
/com,******************* SOLVE FOR LS 1 OF 2 ****************
esel,s,type,,19
nsle
sf,all,pres,2000000.
esel,s,type,,20
nsle
sf,all,pres,2000000.
nsel,all
esel,all
esel,all
/nopr
/gopr
f,87613,fx,10000.
nsub,1,1,1
time,1.
outres,erase
outres,all,none
outres,nsol,all,
outres,rsol,all
outres,eangl,all
outres,etmp,all
outres,veng,all
outres,strs,all,
outres,epel,all,
outres,eppl,all,
outres,cont,all,
! *********** WB SOLVE COMMAND ***********
! check interactive state
*get,ANSINTER_,active,,int
*if,ANSINTER_,ne,0,then
/eof
*endif
solve
/com *************** Write FE CONNECTORS ********* 
CEWRITE,file,ce,,INTE
/com,****************************************************
/com,*************** FINISHED SOLVE FOR LS 1 *************
/com,****************************************************
/com,******************* SOLVE FOR LS 2 OF 2 ****************
esel,all
/nopr
/gopr
f,87613,fx,0.
nsub,1,1,1
time,2.
outres,erase
outres,all,none
outres,nsol,all,
outres,rsol,all
outres,eangl,all
outres,etmp,all
outres,veng,all
outres,strs,all,
outres,epel,all,
outres,eppl,all,
outres,cont,all,
solve
/com,****************************************************
/com,*************** FINISHED SOLVE FOR LS 2 *************
*get,_wallasol,active,,time,wall
/nopr
*get,_numnode,node,0,count
*get,_numelem,elem,0,count
*get, _MAXELEMNUM, elem, 0, NUM, MAX
*get, _MAXNODENUM, node, 0, NUM, MAX,,,INTERNAL
*get, _MAXELEMTYPE, etyp, 0, NUM, MAX
*get, _MAXREALCONST, rcon, 0, NUM, MAX
*get,_NSOLTHREADS,active,0,ntfs
*get,_NSOLPROCESSES,active,0,npfs
/gopr
*get,_PCGITER,active,,solu,cgiter
/post1
xmlo,ENCODING,ISO-8859-1
xmlo,parm
/xml,parm,xml
fini
/gopr
*get,_walldone,active,,time,wall
_preptime=(_wallbsol-_wallstrt)*3600
_solvtime=(_wallasol-_wallbsol)*3600
_posttime=(_walldone-_wallasol)*3600
_totaltim=(_walldone-_wallstrt)*3600
*get,_dlbratio,active,0,solu,dlbr
*get,_combtime,active,0,solu,comb
*get,_ssmode,active,0,solu,ssmm
*get,_ndofs,active,0,solu,ndof
*get,_sol_end_time,active,0,set,time
*if,_sol_end_time,eq,2.000000,then
/fclean				!clean distributed files
*endif
/com,--- Total number of nodes = %_numnode%
/com,--- Total number of elements = %_numelem%
/com,--- Element load balance ratio = %_dlbratio%
/com,--- Time to combine distributed files = %_combtime%
/com,--- Sparse memory mode = %_ssmode%
/com,--- Number of DOF = %_ndofs%
/wb,file,end               ! done with WB generated input
