/batch
/config,noeldb,1     ! force off writing results to database
*get,_wallstrt,active,,time,wall
! ANSYS input file written by Workbench version 2024 R1
! File used for geometry attach: C:\Engineering Portifolio\FEA Projects in Ansys\3D-Static structural problem\3D structural problem_files\dp0\SYS\DM\SYS.scdoc
/title,3D structural problem--Static Structural (A5)
! ****** Begin Custom Load Command Snippet ******
/COM, ACT Extensions:
/COM,     LSDYNA, 2024.1
/COM,     5f463412-bd3e-484b-87e7-cbc0a665e474, wbex
/COM,/COM,     ANSYSMotion, 2024.1
/COM,     20180725-3f81-49eb-9f31-41364844c769, wbex
/COM,
! ****** End   Custom Load Command Snippet ******
*DIM,_wb_ProjectScratch_dir,string,248
_wb_ProjectScratch_dir(1) = 'C:\Engineering Portifolio\FEA Projects in Ansys\3D-Static structural problem\_ProjectScratch\ScrF297\'
*DIM,_wb_SolverFiles_dir,string,248
_wb_SolverFiles_dir(1) = 'C:\Engineering Portifolio\FEA Projects in Ansys\3D-Static structural problem\3D structural problem_files\dp0\SYS\MECH\'
*DIM,_wb_userfiles_dir,string,248
_wb_userfiles_dir(1) = 'C:\Engineering Portifolio\FEA Projects in Ansys\3D-Static structural problem\3D structural problem_files\user_files\'
/com,--- Data in consistent MKS units. See Solving Units in the help system for more information.
/units,MKS
/nopr
/wb,file,start              !  signify a WB generated input file
/prep7
! Turn off shape checking because checks already performed inside WB mesher.
! See help system for more information.
SHPP,OFF,,NOWARN
/nolist
etcon,set             ! allow ANSYS to choose best KEYOP's for 180x elements, resets any applicable keyopt to MAPDL defaults
/com,*********** Nodes for the whole assembly ***********
nblock,3,,853
(1i9,3e20.9e3)
        1     0.000000000E+00     0.000000000E+00     0.000000000E+00
        2     4.502249881E-02     0.000000000E+00     0.000000000E+00
        3     0.000000000E+00     4.037940060E-02     0.000000000E+00
        4     4.502250000E-02     4.037940000E-02     0.000000000E+00
        5     9.004409761E-02     0.000000000E+00     0.000000000E+00
        6     9.004410000E-02     4.037940000E-02     0.000000000E+00
        7     1.350665964E-01     0.000000000E+00     0.000000000E+00
        8     1.350666000E-01     4.037940000E-02     0.000000000E+00
        9     1.800890952E-01     0.000000000E+00     0.000000000E+00
       10     1.800891000E-01     4.037940000E-02     0.000000000E+00
       11     2.251115940E-01     0.000000000E+00     0.000000000E+00
       12     2.251116000E-01     4.037940000E-02     0.000000000E+00
       13     2.701331928E-01     0.000000000E+00     0.000000000E+00
       14     2.701332000E-01     4.037940000E-02     0.000000000E+00
       15     3.151556917E-01     0.000000000E+00     0.000000000E+00
       16     3.151557000E-01     4.037940000E-02     0.000000000E+00
       17     3.601781905E-01     0.000000000E+00     0.000000000E+00
       18     3.601782000E-01     4.037940000E-02     0.000000000E+00
       19     4.051997893E-01     0.000000000E+00     0.000000000E+00
       20     4.051998000E-01     4.037940000E-02     0.000000000E+00
! ... 757 like lines cut
/wb,elem,start            !  set before creation of elements
/com,*********** Elements for Body 1 "SYS\Surface" ***********
et,1,183
keyo,1,3,3
eblock,19,solid,,225
(19i9)
        1        1        1        1        0        0        0        0        8        0        1      272      276      126      105      776      381      386      772
        1        1        1        1        0        0        0        0        8        0        2      271      275      276      272      775      380      776      770
        1        1        1        1        0        0        0        0        8        0        3      270      274      275      271      774      379      775      768
        1        1        1        1        0        0        0        0        8        0        4      269      273      274      270      773      378      774      766
        1        1        1        1        0        0        0        0        8        0        5      231      252      273      269      371      377      773      764
        1        1        1        1        0        0        0        0        8        0        6      268      272      105       84      771      772      385      763
        1        1        1        1        0        0        0        0        8        0        7      267      271      272      268      769      770      771      761
        1        1        1        1        0        0        0        0        8        0        8      266      270      271      267      767      768      769      759
        1        1        1        1        0        0        0        0        8        0        9      265      269      270      266      765      766      767      757
        1        1        1        1        0        0        0        0        8        0       10      210      231      269      265      370      764      765      755
        1        1        1        1        0        0        0        0        8        0       11      264      268       84       63      762      763      384      754
        1        1        1        1        0        0        0        0        8        0       12      263      267      268      264      760      761      762      752
        1        1        1        1        0        0        0        0        8        0       13      262      266      267      263      758      759      760      750
        1        1        1        1        0        0        0        0        8        0       14      261      265      266      262      756      757      758      748
        1        1        1        1        0        0        0        0        8        0       15      189      210      265      261      369      755      756      746
        1        1        1        1        0        0        0        0        8        0       16      260      264       63       42      753      754      383      745
        1        1        1        1        0        0        0        0        8        0       17      258      263      264      260      751      752      753      743
        1        1        1        1        0        0        0        0        8        0       18      256      262      263      258      749      750      751      741
        1        1        1        1        0        0        0        0        8        0       19      254      261      262      256      747      748      749      739
        1        1        1        1        0        0        0        0        8        0       20      168      189      261      254      368      746      747      737
! ... 206 like lines cut
!Material Id = {6F9C7BE5-1FEF-4C22-BFB9-50F3B8F9749B}
/wb,elem,end               !  done creating elements
/com,*********** Send User Defined Coordinate System(s) ***********
csys,0
toffst,273.15,  ! Temperature offset from absolute zero
/com,*********** Set Reference Temperature ***********
tref,22.
/wb,mat,start              !  starting to send materials
/com,*********** Send Materials ***********
Temperature = 'TEMP' ! Temperature
MP,DENS,1,7850,	! kg m^-3
MP,ALPX,1,1.2e-05,	! C^-1
MP,C,1,434,	! J kg^-1 C^-1
MP,KXX,1,60.5,	! W m^-1 C^-1
MP,RSVX,1,1.7e-07,	! kg m^3 A^-2 s^-3
MP,EX,1,200000000000,	! Pa
MP,NUXY,1,0.3,
MP,MURX,1,10000,
MP,UVID,1,bebb7c5b-2504-435f-9514-bbe79c53624a
MP,UMID,1,59002a79-71c2-428e-906b-55d7dbee100e

/wb,mat,end                !  done sending materials
/com,*********** Send Sheet Properties ***********
r,1,0.1

!************************* Model Summary ********************
!SYS\Surface,	Structural Steel,	matid,	1
!************************* End Model Summary ********************
! get the diagonal of the bounding box. Needed later for other things
*get,_xmin,node,,mnloc,x
*get,_ymin,node,,mnloc,y
*get,_zmin,node,,mnloc,z
*get,_xmax,node,,mxloc,x
*get,_ymax,node,,mxloc,y
*get,_zmax,node,,mxloc,z
_ASMDIAG=(_xmax-_xmin)*(_xmax-_xmin)+(_ymax-_ymin)*(_ymax-_ymin)+(_zmax-_zmin)*(_zmax-_zmin)
_ASMDIAG=SQRT(_ASMDIAG)
/wb,contact,start          !  starting to send contact
/wb,contact,end            !  done creating contacts
/golist
/wb,load,start             !  starting to send loads
/com,*********** Fixed Supports ***********
CMBLOCK,_FIXEDSU,NODE,       22
(8i10)
         1         3        43        64        85       106       127       128
       169       190       211       232       277       278       279       280
       281       322       323       324       325       326
cmsel,s,_FIXEDSU
d,all,all
nsel,all
/com,*********** Define Force Using Surface Effect Elements ***********
local,12,0,0.,0.,0.,0.,0.,0.
csys,0
et,2,153
keyop,2,3,10        ! get plane stress option and thickness from underlying element
eblock,10,,,5
(15i9)
      226        2        2        2       12      126      276      381
      227        2        2        2       12      276      275      380
      228        2        2        2       12      275      274      379
      229        2        2        2       12      274      273      378
      230        2        2        2       12      273      252      377
-1
esel,s,type,,2
keyop,2,2,1                ! Apply load in local coordinate system
keyop,2,7,1                ! Use original area so load is constant in large deformation
keyop,2,11,2               ! Use real and not project area
esel,all
/gst,on,on
fini
*get,_numnode,node,0,count
*get,_numelem,elem,0,count
*get, _MAXELEMNUM, elem, 0, NUM, MAX
*get, _MAXNODENUM, node, 0, NUM, MAX
*get, _MAXELEMTYPE, etyp, 0, NUM, MAX
*get, _MAXREALCONST, rcon, 0, NUM, MAX
/go
/wb,load,end               !  done creating loads
/com,--- Number of total nodes = %_numnode%
/com,--- Number of contact elements = 5
/com,--- Number of spring elements = 0
/com,--- Number of bearing elements = 0
/com,--- Number of solid elements = 225
/com,--- Number of condensed parts = 0
/com,--- Number of total elements = %_numelem%
*get,_wallbsol,active,,time,wall
/com,****************************************************************************
/com,*************************    SOLUTION       ********************************
/com,****************************************************************************
/solu
antype,0                   ! static analysis
_thickRatio=  0     ! Ratio of thick parts in the model
eqsl,sparse,,,,,1
cntr,print,1               ! print out contact info and also make no initial contact an error
cncheck,dmp		!	Enable program controlled contact splitting for distributed memory parallel run
dmpoption,emat,no             ! Don't combine emat file for DANSYS
dmpoption,esav,no             ! Don't combine esav file for DANSYS
nldiag,cont,iter           ! print out contact info each equilibrium iteration
rescontrol,,none                 ! Do not keep any restart files
/com,****************************************************
/com,******************* SOLVE FOR LS 1 OF 1 ****************
esel,s,type,,2
nsle
sfe,all,1,pres,1,0.
sfe,all,2,pres,1,-999999.761581475
nsel,all
esel,all
/nopr
/gopr
nsub,1,1,1
time,1.
outres,erase
outres,all,none
outres,nsol,all,
outres,rsol,all
outres,eangl,all
outres,etmp,all
outres,veng,all
outres,strs,all,
outres,epel,all,
outres,eppl,all,
outres,cont,all,
! *********** WB SOLVE COMMAND ***********
! check interactive state
*get,ANSINTER_,active,,int
*if,ANSINTER_,ne,0,then
/eof
*endif
solve
/com *************** Write FE CONNECTORS ********* 
CEWRITE,file,ce,,INTE
/com,****************************************************
/com,*************** FINISHED SOLVE FOR LS 1 *************
*get,_wallasol,active,,time,wall
/nopr
*get,_numnode,node,0,count
*get,_numelem,elem,0,count
*get, _MAXELEMNUM, elem, 0, NUM, MAX
*get, _MAXNODENUM, node, 0, NUM, MAX,,,INTERNAL
*get, _MAXELEMTYPE, etyp, 0, NUM, MAX
*get, _MAXREALCONST, rcon, 0, NUM, MAX
*get,_NSOLTHREADS,active,0,ntfs
*get,_NSOLPROCESSES,active,0,npfs
/gopr
/post1
xmlo,ENCODING,ISO-8859-1
xmlo,parm
/xml,parm,xml
fini
/gopr
*get,_walldone,active,,time,wall
_preptime=(_wallbsol-_wallstrt)*3600
_solvtime=(_wallasol-_wallbsol)*3600
_posttime=(_walldone-_wallasol)*3600
_totaltim=(_walldone-_wallstrt)*3600
*get,_dlbratio,active,0,solu,dlbr
*get,_combtime,active,0,solu,comb
*get,_ssmode,active,0,solu,ssmm
*get,_ndofs,active,0,solu,ndof
*get,_sol_end_time,active,0,set,time
*if,_sol_end_time,eq,1.000000,then
/fclean				!clean distributed files
*endif
/com,--- Total number of nodes = %_numnode%
/com,--- Total number of elements = %_numelem%
/com,--- Element load balance ratio = %_dlbratio%
/com,--- Time to combine distributed files = %_combtime%
/com,--- Sparse memory mode = %_ssmode%
/com,--- Number of DOF = %_ndofs%
/wb,file,end               ! done with WB generated input
